<?xml version="1.0" encoding="UTF-8"?>

<!-- generated on 2024-08-21 14:34:57.894293 by gtfs2pt.py UNKNOWN
<configuration>
    <gtfs value="data/raw/ttc-routes-and-schedules/TTC Routes and Schedules Data.zip"/>
    <date value="20240813"/>
    <modes value="bus"/>
    <vtype-output value="data/sumo_networks/oakwood_village/oakwood_village_public_transport_vtype.rou.xml"/>
    <begin value="28800.0"/>
    <end value="34200.0"/>
    <network value="data/sumo_networks/oakwood_village/oakwood_village_arterial.net.xml"/>
    <route-output value="data/sumo_networks/oakwood_village/oakwood_village_public_transport.rou.xml"/>
    <additional-output value="data/sumo_networks/oakwood_village/oakwood_village_gtfs_stops_routes.add.xml"/>
</configuration>
-->

<routes xmlns:xsi="http://www.w3.org/2001/XMLSchema-instance" xsi:noNamespaceSchemaLocation="http://sumo.dlr.de/xsd/routes_file.xsd">
    <route id="47508161" edges="8608502">
        <stop busStop="47508161.0" duration="10" until="0"/> <!-- Eglinton Ave West at Marlee Ave -->
    </route>
    <route id="47512878" edges="-14069043 -8539 -8515 -8488 -8463 -8433 -8411 -11129688 -8571266 -9278277 -9278266 -8538 -30119928 -30119927 -14068233 -14068232">
        <stop busStop="47512878.1" duration="10" until="0"/> <!-- Rogers Rd at Dufferin St -->
        <stop busStop="47512878.2" duration="10" until="37"/> <!-- Rogers Rd at Northcliffe Blvd -->
        <stop busStop="47512878.3" duration="10" until="74"/> <!-- Rogers Rd at Glenholme Ave -->
        <stop busStop="47512878.4" duration="10" until="120"/> <!-- Rogers Rd at Oakwood Ave -->
        <stop busStop="47512878.5" duration="10" until="171"/> <!-- Oakwood Ave at Earlsdale Ave -->
        <stop busStop="47512878.6" duration="10" until="226"/> <!-- Oakwood Ave at Conway Ave -->
    </route>
    <route id="47512879" edges="-14069043 -8539 -8515 -8488 -8463 -8433 -8411 -11129688 -8571266 -9278277 -9278266 -8538 -30119928 -30119927 -14068233 -14068232 -8830 -8933 -14015957">
        <stop busStop="47512878.1" duration="10" until="0"/> <!-- Rogers Rd at Dufferin St -->
        <stop busStop="47512878.2" duration="10" until="37"/> <!-- Rogers Rd at Northcliffe Blvd -->
        <stop busStop="47512878.3" duration="10" until="74"/> <!-- Rogers Rd at Glenholme Ave -->
        <stop busStop="47512878.4" duration="10" until="120"/> <!-- Rogers Rd at Oakwood Ave -->
        <stop busStop="47512878.5" duration="10" until="171"/> <!-- Oakwood Ave at Earlsdale Ave -->
        <stop busStop="47512878.6" duration="10" until="226"/> <!-- Oakwood Ave at Conway Ave -->
        <stop busStop="47512879.7" duration="10" until="293"/> <!-- Oakwood Ave at St Clair Ave West -->
    </route>
    <route id="47512923" edges="-8463 -8433 -8411 -11129688 -8571266 -9278277 -9278266 -8538 -30119928 -30119927 -14068233 -14068232 -8830 -8933 -14015957">
        <stop busStop="47512878.3" duration="10" until="0"/> <!-- Rogers Rd at Glenholme Ave -->
        <stop busStop="47512878.4" duration="10" until="46"/> <!-- Rogers Rd at Oakwood Ave -->
        <stop busStop="47512878.5" duration="10" until="97"/> <!-- Oakwood Ave at Earlsdale Ave -->
        <stop busStop="47512878.6" duration="10" until="152"/> <!-- Oakwood Ave at Conway Ave -->
        <stop busStop="47512879.7" duration="10" until="219"/> <!-- Oakwood Ave at St Clair Ave West -->
    </route>
    <route id="47512933" edges="-14015957 14015957 8933 8830 14068232 14068233 30119927 30119928 8538 9278266 9278277 8571266 11129688 8411 8433 8463 8488 8515 8539">
        <stop busStop="47512879.7" duration="10" until="0"/> <!-- Oakwood Ave at St Clair Ave West -->
        <stop busStop="47512933.1" duration="10" until="19"/> <!-- Oakwood Ave at St Clair Ave West North Side -->
        <stop busStop="47512933.2" duration="10" until="62"/> <!-- Oakwood Ave at Conway Ave North Side -->
        <stop busStop="47512933.3" duration="10" until="100"/> <!-- Oakwood Ave at Earlsdale Ave -->
        <stop busStop="47512933.4" duration="10" until="145"/> <!-- Rogers Rd at Oakwood Ave West Side -->
        <stop busStop="47512933.5" duration="10" until="187"/> <!-- Rogers Rd at Glenholme Ave -->
        <stop busStop="47512933.6" duration="10" until="250"/> <!-- Rogers Rd at Northcliffe Blvd -->
        <stop busStop="47512933.7" duration="10" until="302"/> <!-- Rogers Rd at Dufferin St -->
    </route>
    <route id="47512937" edges="11129688 8411 8433 8463 8488 8515 8539">
        <stop busStop="47512933.4" duration="10" until="0"/> <!-- Rogers Rd at Oakwood Ave West Side -->
        <stop busStop="47512933.5" duration="10" until="42"/> <!-- Rogers Rd at Glenholme Ave -->
        <stop busStop="47512933.6" duration="10" until="105"/> <!-- Rogers Rd at Northcliffe Blvd -->
        <stop busStop="47512933.7" duration="10" until="157"/> <!-- Rogers Rd at Dufferin St -->
    </route>
    <route id="47516474" edges="-12601268 -20091988 -20091987 -9741259 -30093309 -30093308 -8065 -9781140 -9781088 -9781127 -20042488 -20042487 -14072116 -14072115 -8540 -8539 -8515 -8566075 -8847 8870 8871">
        <stop busStop="47516474.0" duration="10" until="0"/> <!-- Dufferin St at Bowie Ave -->
        <stop busStop="47516474.1" duration="10" until="75"/> <!-- Dufferin St at Eglinton Ave West -->
        <stop busStop="47516474.2" duration="10" until="188"/> <!-- Dufferin St at Rowan Ave -->
        <stop busStop="47516474.3" duration="10" until="240"/> <!-- Dufferin St at Preston Rd South Side -->
        <stop busStop="47516474.4" duration="10" until="292"/> <!-- Dufferin St at Holmesdale Rd -->
        <stop busStop="47516474.5" duration="10" until="345"/> <!-- Dufferin St at Eversfield Rd South Side -->
        <stop busStop="47516474.6" duration="10" until="386"/> <!-- Dufferin St at Rogers Rd -->
        <stop busStop="47516474.7" duration="10" until="484"/> <!-- Dufferin St at Hope St -->
    </route>
    <route id="47516477" edges="-9781140 -9781088 -9781127 -20042488 -20042487 -14072116 -14072115 -8540 -8539 -8515 -8566075 -8847 8870 8871">
        <stop busStop="47516474.3" duration="10" until="0"/> <!-- Dufferin St at Preston Rd South Side -->
        <stop busStop="47516474.4" duration="10" until="52"/> <!-- Dufferin St at Holmesdale Rd -->
        <stop busStop="47516474.5" duration="10" until="105"/> <!-- Dufferin St at Eversfield Rd South Side -->
        <stop busStop="47516474.6" duration="10" until="146"/> <!-- Dufferin St at Rogers Rd -->
        <stop busStop="47516474.7" duration="10" until="244"/> <!-- Dufferin St at Hope St -->
    </route>
    <route id="47516483" edges="-12601268 -20091988 -20091987 -9741259 -30093309 -30093308 -8065 -9781140 -9781088 -9781127 -20042488 -20042487 -14072116 -14072115 -8540 -8539 -8515 -8566075 -8847 8870 8871">
        <stop busStop="47516474.0" duration="10" until="0"/> <!-- Dufferin St at Bowie Ave -->
        <stop busStop="47516474.1" duration="10" until="67"/> <!-- Dufferin St at Eglinton Ave West -->
        <stop busStop="47516474.2" duration="10" until="167"/> <!-- Dufferin St at Rowan Ave -->
        <stop busStop="47516474.3" duration="10" until="214"/> <!-- Dufferin St at Preston Rd South Side -->
        <stop busStop="47516474.4" duration="10" until="261"/> <!-- Dufferin St at Holmesdale Rd -->
        <stop busStop="47516474.5" duration="10" until="308"/> <!-- Dufferin St at Eversfield Rd South Side -->
        <stop busStop="47516474.6" duration="10" until="344"/> <!-- Dufferin St at Rogers Rd -->
        <stop busStop="47516474.7" duration="10" until="431"/> <!-- Dufferin St at Hope St -->
    </route>
    <route id="47516602" edges="8999 8871 8685 8539 -8612 8612 8540 14072115 14072116 20042487 20042488 9781127 9781088 9781140 8065 30093308 30093309 9741259 20091987 20091988">
        <stop busStop="47516602.0" duration="10" until="0"/> <!-- Dufferin St at Ascot Ave -->
        <stop busStop="47516602.1" duration="10" until="67"/> <!-- Dufferin St at Hope St -->
        <stop busStop="47516602.2" duration="10" until="164"/> <!-- Dufferin St at Rogers Rd -->
        <stop busStop="47516602.3" duration="10" until="205"/> <!-- Dufferin St at Eversfield Rd -->
        <stop busStop="47516602.4" duration="10" until="255"/> <!-- Dufferin St at Martin St -->
        <stop busStop="47516602.5" duration="10" until="323"/> <!-- Dufferin St at Gibson St North Side -->
        <stop busStop="47516602.6" duration="10" until="361"/> <!-- Dufferin St at Rowan Ave -->
        <stop busStop="47516602.7" duration="10" until="468"/> <!-- Dufferin St at Eglinton Ave West -->
    </route>
    <route id="47516606" edges="8065 30093308 30093309 9741259 20091987 20091988">
        <stop busStop="47516602.6" duration="10" until="0"/> <!-- Dufferin St at Rowan Ave -->
        <stop busStop="47516602.7" duration="10" until="107"/> <!-- Dufferin St at Eglinton Ave West -->
    </route>
    <route id="47516619" edges="8999 8871">
        <stop busStop="47516602.0" duration="10" until="0"/> <!-- Dufferin St at Ascot Ave -->
        <stop busStop="47516602.1" duration="10" until="60"/> <!-- Dufferin St at Hope St -->
    </route>
    <route id="47517350" edges="-8432383 -30134812 -8649755 -8677495 -20141746 -20141745 -10663483 -8593989 -10663349">
        <stop busStop="47517350.0" duration="10" until="0"/> <!-- Eglinton Ave West at Dufferin St -->
        <stop busStop="47517350.1" duration="10" until="83"/> <!-- Eglinton Ave West at Northcliffe Blvd -->
        <stop busStop="47517350.2" duration="10" until="154"/> <!-- Eglinton Ave West at Glenholme Ave -->
        <stop busStop="47517350.3" duration="10" until="228"/> <!-- Eglinton Ave West at Oakwood Ave -->
        <stop busStop="47517350.4" duration="10" until="331"/> <!-- Eglinton Ave West at Marlee Ave -->
    </route>
    <route id="47517382" edges="-10663349">
        <stop busStop="47517350.4" duration="10" until="0"/> <!-- Eglinton Ave West at Marlee Ave -->
    </route>
    <route id="47517388" edges="-30134812 -8649755 -8677495 -20141746 -20141745 -10663483 -8593989 -10663349">
        <stop busStop="47517350.1" duration="10" until="0"/> <!-- Eglinton Ave West at Northcliffe Blvd -->
        <stop busStop="47517350.2" duration="10" until="71"/> <!-- Eglinton Ave West at Glenholme Ave -->
        <stop busStop="47517350.3" duration="10" until="145"/> <!-- Eglinton Ave West at Oakwood Ave -->
        <stop busStop="47517350.4" duration="10" until="248"/> <!-- Eglinton Ave West at Marlee Ave -->
    </route>
    <route id="47517431" edges="-8432383 -30134812 -8649755 -8677495">
        <stop busStop="47517350.0" duration="10" until="0"/> <!-- Eglinton Ave West at Dufferin St -->
        <stop busStop="47517350.1" duration="10" until="83"/> <!-- Eglinton Ave West at Northcliffe Blvd -->
        <stop busStop="47517350.2" duration="10" until="154"/> <!-- Eglinton Ave West at Glenholme Ave -->
    </route>
    <route id="47517672" edges="10663339 10663385 10663349 8593989 10663483 20141745 20141746 8677495 8649755 30134812">
        <stop busStop="47517672.0" duration="10" until="0"/> <!-- Eglinton Ave West at Marlee Ave -->
        <stop busStop="47517672.1" duration="10" until="51"/> <!-- Eglinton Ave West at Oakwood Ave -->
        <stop busStop="47517672.2" duration="10" until="89"/> <!-- Eglinton Ave West at Glenholme Ave -->
        <stop busStop="47517672.3" duration="10" until="120"/> <!-- Eglinton Ave West at Jimmy Wisdom Way -->
        <stop busStop="47517672.4" duration="10" until="164"/> <!-- Eglinton Ave West at Dufferin St -->
    </route>
    <route id="47517710" edges="10663339 10663385 10663349 8593989 10663483 20141745 20141746 8677495">
        <stop busStop="47517672.0" duration="10" until="0"/> <!-- Eglinton Ave West at Marlee Ave -->
        <stop busStop="47517672.1" duration="10" until="64"/> <!-- Eglinton Ave West at Oakwood Ave -->
        <stop busStop="47517672.2" duration="10" until="112"/> <!-- Eglinton Ave West at Glenholme Ave -->
        <stop busStop="47517672.3" duration="10" until="151"/> <!-- Eglinton Ave West at Jimmy Wisdom Way -->
    </route>
    <route id="47517757" edges="8677495 8649755 30134812">
        <stop busStop="47517672.3" duration="10" until="0"/> <!-- Eglinton Ave West at Jimmy Wisdom Way -->
        <stop busStop="47517672.4" duration="10" until="44"/> <!-- Eglinton Ave West at Dufferin St -->
    </route>
    <route id="47529477" edges="8608502">
        <stop busStop="47508161.0" duration="10" until="0"/> <!-- Eglinton Ave West at Marlee Ave -->
    </route>
    <route id="47530152" edges="-14015957">
        <stop busStop="47512879.7" duration="10" until="0"/> <!-- Oakwood Ave at St Clair Ave West -->
    </route>
    <route id="47530153" edges="10663339 10663385 10663349 8593989 -20039583 -20039582 -8593971 -7695 -7748 -7809 -2302307 -2302312 -2302332 -10706173 -7985 -2302411 -8083 -8143 -8163 -8203 -8593793 -8571266 -9278277 -9278266 -8538 -30119928 -30119927 -14068233 -14068232 -8830 -8933 -14015957">
        <stop busStop="47517672.0" duration="10" until="0"/> <!-- Eglinton Ave West at Marlee Ave -->
        <stop busStop="47530153.1" duration="10" until="110"/> <!-- Oakwood Ave at Eglinton Ave West South Side -->
        <stop busStop="47530153.2" duration="10" until="179"/> <!-- Oakwood Ave at Clovelly Ave -->
        <stop busStop="47530153.3" duration="10" until="277"/> <!-- Oakwood Ave at Vaughan Rd -->
        <stop busStop="47530153.4" duration="10" until="331"/> <!-- Oakwood Ave at Jesmond Ave -->
        <stop busStop="47530153.5" duration="10" until="387"/> <!-- Oakwood Ave at Rogers Rd -->
        <stop busStop="47512878.5" duration="10" until="453"/> <!-- Oakwood Ave at Earlsdale Ave -->
        <stop busStop="47512878.6" duration="10" until="526"/> <!-- Oakwood Ave at Conway Ave -->
        <stop busStop="47512879.7" duration="10" until="615"/> <!-- Oakwood Ave at St Clair Ave West -->
    </route>
    <route id="47530157" edges="-10706173 -7985 -2302411 -8083 -8143 -8163 -8203 -8593793 -8571266 -9278277 -9278266 -8538 -30119928 -30119927 -14068233 -14068232 -8830 -8933 -14015957">
        <stop busStop="47530153.3" duration="10" until="0"/> <!-- Oakwood Ave at Vaughan Rd -->
        <stop busStop="47530153.4" duration="10" until="54"/> <!-- Oakwood Ave at Jesmond Ave -->
        <stop busStop="47530153.5" duration="10" until="110"/> <!-- Oakwood Ave at Rogers Rd -->
        <stop busStop="47512878.5" duration="10" until="176"/> <!-- Oakwood Ave at Earlsdale Ave -->
        <stop busStop="47512878.6" duration="10" until="249"/> <!-- Oakwood Ave at Conway Ave -->
        <stop busStop="47512879.7" duration="10" until="338"/> <!-- Oakwood Ave at St Clair Ave West -->
    </route>
    <route id="47530293" edges="10663339 10663385 10663349 8593989 -20039583 -20039582 -8593971 -7695 -7748">
        <stop busStop="47517672.0" duration="10" until="0"/> <!-- Eglinton Ave West at Marlee Ave -->
        <stop busStop="47530153.1" duration="10" until="78"/> <!-- Oakwood Ave at Eglinton Ave West South Side -->
        <stop busStop="47530153.2" duration="10" until="127"/> <!-- Oakwood Ave at Clovelly Ave -->
    </route>
    <route id="47530521" edges="-14015957 14015957 8933 8830 14068232 14068233 30119927 30119928 8538 9278266 9278277 8571266 8593793 8203 8163 8143 8083 2302411 7985 10706173 2302332 2302312 2302307 7809 7748 7695 8593971 20039582 20039583 -8593989 -10663349">
        <stop busStop="47512879.7" duration="10" until="0"/> <!-- Oakwood Ave at St Clair Ave West -->
        <stop busStop="47512933.1" duration="10" until="24"/> <!-- Oakwood Ave at St Clair Ave West North Side -->
        <stop busStop="47512933.2" duration="10" until="88"/> <!-- Oakwood Ave at Conway Ave North Side -->
        <stop busStop="47512933.3" duration="10" until="146"/> <!-- Oakwood Ave at Earlsdale Ave -->
        <stop busStop="47530521.4" duration="10" until="183"/> <!-- Oakwood Ave at Rogers Rd -->
        <stop busStop="47530521.5" duration="10" until="237"/> <!-- Oakwood Ave at Jesmond Ave -->
        <stop busStop="47530521.6" duration="10" until="300"/> <!-- Oakwood Ave at Vaughan Rd -->
        <stop busStop="47530521.7" duration="10" until="402"/> <!-- Oakwood Ave at Clovelly Ave -->
        <stop busStop="47530521.8" duration="10" until="501"/> <!-- Oakwood Ave at Eglinton Ave West -->
        <stop busStop="47517350.4" duration="10" until="628"/> <!-- Eglinton Ave West at Marlee Ave -->
    </route>
    <route id="47530604" edges="-14015957 14015957 8933 8830 14068232 14068233 30119927 30119928 8538 9278266 9278277 8571266 8593793 8203">
        <stop busStop="47512879.7" duration="10" until="0"/> <!-- Oakwood Ave at St Clair Ave West -->
        <stop busStop="47512933.1" duration="10" until="24"/> <!-- Oakwood Ave at St Clair Ave West North Side -->
        <stop busStop="47512933.2" duration="10" until="88"/> <!-- Oakwood Ave at Conway Ave North Side -->
        <stop busStop="47512933.3" duration="10" until="146"/> <!-- Oakwood Ave at Earlsdale Ave -->
        <stop busStop="47530521.4" duration="10" until="183"/> <!-- Oakwood Ave at Rogers Rd -->
        <stop busStop="47530521.5" duration="10" until="237"/> <!-- Oakwood Ave at Jesmond Ave -->
    </route>
    <route id="47530610" edges="-14015957">
        <stop busStop="47512879.7" duration="10" until="0"/> <!-- Oakwood Ave at St Clair Ave West -->
    </route>
    <route id="47530619" edges="10706173 2302332 2302312 2302307 7809 7748 7695 8593971 20039582 20039583 -8593989 -10663349">
        <stop busStop="47530619.0" duration="10" until="0"/> <!-- Oakwood Ave at Vaughan Rd -->
        <stop busStop="47530521.7" duration="10" until="66"/> <!-- Oakwood Ave at Clovelly Ave -->
        <stop busStop="47530521.8" duration="10" until="128"/> <!-- Oakwood Ave at Eglinton Ave West -->
        <stop busStop="47517350.4" duration="10" until="207"/> <!-- Eglinton Ave West at Marlee Ave -->
    </route>
    <route id="47530718" edges="-14015957 14015957 8933 8830 14068232 14068233 30119927 30119928 8538 9278266 9278277 8571266 8593793 8203 8163 8143 8083 2302411 7985 10706173 2302332 2302312 2302307 7809 7748 7695 8593971 20039582">
        <stop busStop="47512879.7" duration="10" until="0"/> <!-- Oakwood Ave at St Clair Ave West -->
        <stop busStop="47512933.1" duration="10" until="24"/> <!-- Oakwood Ave at St Clair Ave West North Side -->
        <stop busStop="47512933.2" duration="10" until="88"/> <!-- Oakwood Ave at Conway Ave North Side -->
        <stop busStop="47512933.3" duration="10" until="146"/> <!-- Oakwood Ave at Earlsdale Ave -->
        <stop busStop="47530521.4" duration="10" until="183"/> <!-- Oakwood Ave at Rogers Rd -->
        <stop busStop="47530521.5" duration="10" until="237"/> <!-- Oakwood Ave at Jesmond Ave -->
        <stop busStop="47530521.6" duration="10" until="300"/> <!-- Oakwood Ave at Vaughan Rd -->
        <stop busStop="47530521.7" duration="10" until="402"/> <!-- Oakwood Ave at Clovelly Ave -->
        <stop busStop="47530521.8" duration="10" until="501"/> <!-- Oakwood Ave at Eglinton Ave West -->
    </route>
    <route id="47537308" edges="-14068268 -14068267 -8026 -14067926 -14067925 -8064 -8096 -8128 -30106845 -30106844 -8194 -8198 -11129896 -8219 -10663526">
        <stop busStop="47537308.0" duration="10" until="0"/> <!-- Vaughan Rd at Oakwood Ave East Side -->
        <stop busStop="47537308.1" duration="10" until="113"/> <!-- Vaughan Rd at Winona Dr East Side -->
        <stop busStop="47537308.2" duration="10" until="187"/> <!-- Vaughan Rd at Arlington Ave East Side -->
    </route>
    <route id="47537324" edges="-14068268 -14068267 -8026 -14067926 -14067925 -8064 -8096 -8128 -30106845 -30106844 -8194 -8198 -11129896 -8219 -10663526">
        <stop busStop="47537308.0" duration="10" until="0"/> <!-- Vaughan Rd at Oakwood Ave East Side -->
        <stop busStop="47537308.1" duration="10" until="99"/> <!-- Vaughan Rd at Winona Dr East Side -->
        <stop busStop="47537308.2" duration="10" until="164"/> <!-- Vaughan Rd at Arlington Ave East Side -->
    </route>
    <route id="47537476" edges="10663526 8219 11129896 8198 8194 30106844 30106845 8128 8125 8144 8162 8163 8143 8083 2302411 12220889 -14068268">
        <stop busStop="47537476.0" duration="10" until="0"/> <!-- Vaughan Rd at Arlington Ave -->
        <stop busStop="47537476.1" duration="10" until="97"/> <!-- Vaughan Rd at Winona Dr West Side -->
        <stop busStop="47537476.2" duration="10" until="122"/> <!-- Jesmond Ave at Cedric Ave -->
        <stop busStop="47537476.3" duration="10" until="155"/> <!-- Jesmond Ave at Oakwood Ave -->
        <stop busStop="47537308.0" duration="10" until="252"/> <!-- Vaughan Rd at Oakwood Ave East Side -->
    </route>
    <route id="47537485" edges="8128 8125 8144 8162 8163 8143 8083 2302411 12220889 -14068268">
        <stop busStop="47537476.1" duration="10" until="0"/> <!-- Vaughan Rd at Winona Dr West Side -->
        <stop busStop="47537476.2" duration="10" until="25"/> <!-- Jesmond Ave at Cedric Ave -->
        <stop busStop="47537476.3" duration="10" until="58"/> <!-- Jesmond Ave at Oakwood Ave -->
        <stop busStop="47537308.0" duration="10" until="155"/> <!-- Vaughan Rd at Oakwood Ave East Side -->
    </route>
    <route id="47539267" edges="-12601268 -20091988 -20091987 -9741259 -30093309 -30093308 -8065 -9781140 -9781088 -9781127 -20042488 -20042487 -14072116 -14072115 -8540">
        <stop busStop="47516474.1" duration="10" until="0"/> <!-- Dufferin St at Eglinton Ave West -->
        <stop busStop="47516474.6" duration="10" until="241"/> <!-- Dufferin St at Rogers Rd -->
    </route>
    <route id="47539332" edges="8432383">
        <stop busStop="47539332.0" duration="10" until="0"/> <!-- Dufferin St at Eglinton Ave West -->
    </route>
    <route id="47539383" edges="8612 8540 14072115 14072116 20042487 20042488 9781127 9781088 9781140 8065 30093308 30093309 9741259 20091987 20091988">
        <stop busStop="47516602.2" duration="10" until="0"/> <!-- Dufferin St at Rogers Rd -->
        <stop busStop="47516602.7" duration="10" until="239"/> <!-- Dufferin St at Eglinton Ave West -->
    </route>
    <route id="47539471" edges="8612">
        <stop busStop="47516602.2" duration="10" until="0"/> <!-- Dufferin St at Rogers Rd -->
    </route>
    <route id="47539479" edges="20091988">
        <stop busStop="47516602.7" duration="10" until="0"/> <!-- Dufferin St at Eglinton Ave West -->
    </route>
    <vehicle id="47512878.0" route="47512878" type="bus" depart="33945" line="47512878">
        <param key="gtfs.route_name" value="161"/>
        <param key="gtfs.trip_headsign" value="EAST - 161 ROGERS RD towards OSSINGTON STATION"/>
    </vehicle>
    <vehicle id="47512879.0" route="47512879" type="bus" depart="32985" line="47512879">
        <param key="gtfs.route_name" value="161"/>
        <param key="gtfs.trip_headsign" value="EAST - 161 ROGERS RD towards OSSINGTON STATION"/>
    </vehicle>
    <vehicle id="47512925.0" route="47512879" type="bus" depart="31947" line="47512879">
        <param key="gtfs.route_name" value="161"/>
        <param key="gtfs.trip_headsign" value="EAST - 161 ROGERS RD towards OSSINGTON STATION"/>
    </vehicle>
    <vehicle id="47512926.0" route="47512879" type="bus" depart="30867" line="47512879">
        <param key="gtfs.route_name" value="161"/>
        <param key="gtfs.trip_headsign" value="EAST - 161 ROGERS RD towards OSSINGTON STATION"/>
    </vehicle>
    <vehicle id="47512927.0" route="47512879" type="bus" depart="29787" line="47512879">
        <param key="gtfs.route_name" value="161"/>
        <param key="gtfs.trip_headsign" value="EAST - 161 ROGERS RD towards OSSINGTON STATION"/>
    </vehicle>
    <vehicle id="47512933.0" route="47512933" type="bus" depart="33342" line="47512933">
        <param key="gtfs.route_name" value="161"/>
        <param key="gtfs.trip_headsign" value="WEST - 161 ROGERS RD towards JANE"/>
    </vehicle>
    <vehicle id="47512934.0" route="47512933" type="bus" depart="32142" line="47512933">
        <param key="gtfs.route_name" value="161"/>
        <param key="gtfs.trip_headsign" value="WEST - 161 ROGERS RD towards JANE"/>
    </vehicle>
    <vehicle id="47512935.0" route="47512933" type="bus" depart="30942" line="47512933">
        <param key="gtfs.route_name" value="161"/>
        <param key="gtfs.trip_headsign" value="WEST - 161 ROGERS RD towards JANE"/>
    </vehicle>
    <vehicle id="47512936.0" route="47512933" type="bus" depart="29742" line="47512933">
        <param key="gtfs.route_name" value="161"/>
        <param key="gtfs.trip_headsign" value="WEST - 161 ROGERS RD towards JANE"/>
    </vehicle>
    <vehicle id="47512937.0" route="47512937" type="bus" depart="28807" line="47512937">
        <param key="gtfs.route_name" value="161"/>
        <param key="gtfs.trip_headsign" value="WEST - 161 ROGERS RD towards JANE"/>
    </vehicle>
    <vehicle id="47516474.0" route="47516474" type="bus" depart="30026" line="47516474">
        <param key="gtfs.route_name" value="29"/>
        <param key="gtfs.trip_headsign" value="SOUTH - 29 DUFFERIN towards EXHIBITION (DUFFERIN GATE)"/>
    </vehicle>
    <vehicle id="47516475.0" route="47516474" type="bus" depart="29546" line="47516474">
        <param key="gtfs.route_name" value="29"/>
        <param key="gtfs.trip_headsign" value="SOUTH - 29 DUFFERIN towards EXHIBITION (DUFFERIN GATE)"/>
    </vehicle>
    <vehicle id="47516476.0" route="47516474" type="bus" depart="29066" line="47516474">
        <param key="gtfs.route_name" value="29"/>
        <param key="gtfs.trip_headsign" value="SOUTH - 29 DUFFERIN towards EXHIBITION (DUFFERIN GATE)"/>
    </vehicle>
    <vehicle id="47516477.0" route="47516477" type="bus" depart="28826" line="47516477">
        <param key="gtfs.route_name" value="29"/>
        <param key="gtfs.trip_headsign" value="SOUTH - 29 DUFFERIN towards EXHIBITION (DUFFERIN GATE)"/>
    </vehicle>
    <vehicle id="47516483.0" route="47516483" type="bus" depart="33755" line="47516483">
        <param key="gtfs.route_name" value="29"/>
        <param key="gtfs.trip_headsign" value="SOUTH - 29 DUFFERIN towards EXHIBITION (DUFFERIN GATE)"/>
    </vehicle>
    <vehicle id="47516484.0" route="47516474" type="bus" depart="33275" line="47516474">
        <param key="gtfs.route_name" value="29"/>
        <param key="gtfs.trip_headsign" value="SOUTH - 29 DUFFERIN towards EXHIBITION (DUFFERIN GATE)"/>
    </vehicle>
    <vehicle id="47516485.0" route="47516474" type="bus" depart="32786" line="47516474">
        <param key="gtfs.route_name" value="29"/>
        <param key="gtfs.trip_headsign" value="SOUTH - 29 DUFFERIN towards EXHIBITION (DUFFERIN GATE)"/>
    </vehicle>
    <vehicle id="47516486.0" route="47516474" type="bus" depart="32246" line="47516474">
        <param key="gtfs.route_name" value="29"/>
        <param key="gtfs.trip_headsign" value="SOUTH - 29 DUFFERIN towards EXHIBITION (DUFFERIN GATE)"/>
    </vehicle>
    <vehicle id="47516487.0" route="47516474" type="bus" depart="31766" line="47516474">
        <param key="gtfs.route_name" value="29"/>
        <param key="gtfs.trip_headsign" value="SOUTH - 29 DUFFERIN towards EXHIBITION (DUFFERIN GATE)"/>
    </vehicle>
    <vehicle id="47516488.0" route="47516474" type="bus" depart="31346" line="47516474">
        <param key="gtfs.route_name" value="29"/>
        <param key="gtfs.trip_headsign" value="SOUTH - 29 DUFFERIN towards EXHIBITION (DUFFERIN GATE)"/>
    </vehicle>
    <vehicle id="47516489.0" route="47516474" type="bus" depart="30926" line="47516474">
        <param key="gtfs.route_name" value="29"/>
        <param key="gtfs.trip_headsign" value="SOUTH - 29 DUFFERIN towards EXHIBITION (DUFFERIN GATE)"/>
    </vehicle>
    <vehicle id="47516490.0" route="47516474" type="bus" depart="30506" line="47516474">
        <param key="gtfs.route_name" value="29"/>
        <param key="gtfs.trip_headsign" value="SOUTH - 29 DUFFERIN towards EXHIBITION (DUFFERIN GATE)"/>
    </vehicle>
    <vehicle id="47516602.0" route="47516602" type="bus" depart="30352" line="47516602">
        <param key="gtfs.route_name" value="29"/>
        <param key="gtfs.trip_headsign" value="NORTH - 29 DUFFERIN towards WILSON STATION"/>
    </vehicle>
    <vehicle id="47516603.0" route="47516602" type="bus" depart="29872" line="47516602">
        <param key="gtfs.route_name" value="29"/>
        <param key="gtfs.trip_headsign" value="NORTH - 29 DUFFERIN towards WILSON STATION"/>
    </vehicle>
    <vehicle id="47516604.0" route="47516602" type="bus" depart="29392" line="47516602">
        <param key="gtfs.route_name" value="29"/>
        <param key="gtfs.trip_headsign" value="NORTH - 29 DUFFERIN towards WILSON STATION"/>
    </vehicle>
    <vehicle id="47516605.0" route="47516602" type="bus" depart="28912" line="47516602">
        <param key="gtfs.route_name" value="29"/>
        <param key="gtfs.trip_headsign" value="NORTH - 29 DUFFERIN towards WILSON STATION"/>
    </vehicle>
    <vehicle id="47516619.0" route="47516619" type="bus" depart="34065" line="47516619">
        <param key="gtfs.route_name" value="29"/>
        <param key="gtfs.trip_headsign" value="NORTH - 29 DUFFERIN towards WILSON STATION"/>
    </vehicle>
    <vehicle id="47516620.0" route="47516602" type="bus" depart="33585" line="47516602">
        <param key="gtfs.route_name" value="29"/>
        <param key="gtfs.trip_headsign" value="NORTH - 29 DUFFERIN towards WILSON STATION"/>
    </vehicle>
    <vehicle id="47516621.0" route="47516602" type="bus" depart="33105" line="47516602">
        <param key="gtfs.route_name" value="29"/>
        <param key="gtfs.trip_headsign" value="NORTH - 29 DUFFERIN towards WILSON STATION"/>
    </vehicle>
    <vehicle id="47516622.0" route="47516602" type="bus" depart="32625" line="47516602">
        <param key="gtfs.route_name" value="29"/>