<?xml version="1.0" encoding="UTF-8"?>

<!-- generated on 2024-08-21 14:34:57.783364 by gtfs2pt.py UNKNOWN
<configuration>
    <gtfs value="data/raw/ttc-routes-and-schedules/TTC Routes and Schedules Data.zip"/>
    <date value="20240813"/>
    <modes value="bus"/>
    <vtype-output value="data/sumo_networks/oakwood_village/oakwood_village_public_transport_vtype.rou.xml"/>
    <begin value="28800.0"/>
    <end value="34200.0"/>
    <network value="data/sumo_networks/oakwood_village/oakwood_village_arterial.net.xml"/>
    <route-output value="data/sumo_networks/oakwood_village/oakwood_village_public_transport.rou.xml"/>
    <additional-output value="data/sumo_networks/oakwood_village/oakwood_village_gtfs_stops_routes.add.xml"/>
</configuration>
-->

<additional xmlns:xsi="http://www.w3.org/2001/XMLSchema-instance" xsi:noNamespaceSchemaLocation="http://sumo.dlr.de/xsd/additional_file.xsd">
    <busStop id="47508161.0" lane="8608502_0" startPos="21.11" endPos="34.11" friendlyPos="true" name="Eglinton Ave West at Marlee Ave"/>
    <busStop id="47512878.1" lane="-14069043_0" startPos="12.42" endPos="25.42" friendlyPos="true" name="Rogers Rd at Dufferin St"/>
    <busStop id="47512878.2" lane="-8515_0" startPos="59.66" endPos="72.66" friendlyPos="true" name="Rogers Rd at Northcliffe Blvd"/>
    <busStop id="47512878.3" lane="-8463_0" startPos="69.13" endPos="82.13" friendlyPos="true" name="Rogers Rd at Glenholme Ave"/>
    <busStop id="47512878.4" lane="-11129688_0" startPos="44.18" endPos="57.18" friendlyPos="true" name="Rogers Rd at Oakwood Ave"/>
    <busStop id="47512878.5" lane="-30119928_0" startPos="15.20" endPos="28.20" friendlyPos="true" name="Oakwood Ave at Earlsdale Ave"/>
    <busStop id="47512878.6" lane="-14068232_0" startPos="28.73" endPos="41.73" friendlyPos="true" name="Oakwood Ave at Conway Ave"/>
    <busStop id="47512879.7" lane="-14015957_0" startPos="2.72" endPos="15.72" friendlyPos="true" name="Oakwood Ave at St Clair Ave West"/>
    <busStop id="47512933.1" lane="8933_0" startPos="0.00" endPos="13.00" friendlyPos="true" name="Oakwood Ave at St Clair Ave West North Side"/>
    <busStop id="47512933.2" lane="14068232_0" startPos="7.66" endPos="20.66" friendlyPos="true" name="Oakwood Ave at Conway Ave North Side"/>
    <busStop id="47512933.3" lane="30119928_0" startPos="15.20" endPos="28.20" friendlyPos="true" name="Oakwood Ave at Earlsdale Ave"/>
    <busStop id="47512933.4" lane="11129688_0" startPos="36.91" endPos="49.91" friendlyPos="true" name="Rogers Rd at Oakwood Ave West Side"/>
    <busStop id="47512933.5" lane="8433_0" startPos="24.44" endPos="37.44" friendlyPos="true" name="Rogers Rd at Glenholme Ave"/>
    <busStop id="47512933.6" lane="8488_0" startPos="59.97" endPos="72.97" friendlyPos="true" name="Rogers Rd at Northcliffe Blvd"/>
    <busStop id="47512933.7" lane="8539_0" startPos="54.40" endPos="67.40" friendlyPos="true" name="Rogers Rd at Dufferin St"/>
    <busStop id="47516474.0" lane="-12601268_0" startPos="0.00" endPos="13.00" friendlyPos="true" name="Dufferin St at Bowie Ave"/>
    <busStop id="47516474.1" lane="-12601268_0" startPos="60.40" endPos="70.02" friendlyPos="true" name="Dufferin St at Eglinton Ave West"/>
    <busStop id="47516474.2" lane="-8065_0" startPos="0.00" endPos="13.00" friendlyPos="true" name="Dufferin St at Rowan Ave"/>
    <busStop id="47516474.3" lane="-9781140_0" startPos="22.54" endPos="35.54" friendlyPos="true" name="Dufferin St at Preston Rd South Side"/>
    <busStop id="47516474.4" lane="-9781088_0" startPos="155.41" endPos="168.41" friendlyPos="true" name="Dufferin St at Holmesdale Rd"/>
    <busStop id="47516474.5" lane="-14072116_0" startPos="0.79" endPos="13.79" friendlyPos="true" name="Dufferin St at Eversfield Rd South Side"/>
    <busStop id="47516474.6" lane="-8540_0" startPos="40.66" endPos="53.66" friendlyPos="true" name="Dufferin St at Rogers Rd"/>
    <busStop id="47516474.7" lane="8871_0" startPos="111.99" endPos="124.99" friendlyPos="true" name="Dufferin St at Hope St"/>
    <busStop id="47516602.0" lane="8999_0" startPos="154.27" endPos="167.27" friendlyPos="true" name="Dufferin St at Ascot Ave"/>
    <busStop id="47516602.1" lane="8871_0" startPos="88.73" endPos="101.73" friendlyPos="true" name="Dufferin St at Hope St"/>
    <busStop id="47516602.2" lane="8612_0" startPos="71.84" endPos="84.84" friendlyPos="true" name="Dufferin St at Rogers Rd"/>
    <busStop id="47516602.3" lane="14072116_0" startPos="0.00" endPos="13.00" friendlyPos="true" name="Dufferin St at Eversfield Rd"/>
    <busStop id="47516602.4" lane="20042488_0" startPos="105.24" endPos="118.24" friendlyPos="true" name="Dufferin St at Martin St"/>
    <busStop id="47516602.5" lane="9781140_0" startPos="19.35" endPos="32.35" friendlyPos="true" name="Dufferin St at Gibson St North Side"/>
    <busStop id="47516602.6" lane="8065_0" startPos="99.76" endPos="112.76" friendlyPos="true" name="Dufferin St at Rowan Ave"/>
    <busStop id="47516602.7" lane="20091988_0" startPos="5.18" endPos="18.18" friendlyPos="true" name="Dufferin St at Eglinton Ave West"/>
    <busStop id="47517350.0" lane="-8432383_0" startPos="35.35" endPos="48.35" friendlyPos="true" name="Eglinton Ave West at Dufferin St"/>
    <busStop id="47517350.1" lane="-30134812_0" startPos="177.88" endPos="190.88" friendlyPos="true" name="Eglinton Ave West at Northcliffe Blvd"/>
    <busStop id="47517350.2" lane="-8677495_0" startPos="138.02" endPos="151.02" friendlyPos="true" name="Eglinton Ave West at Glenholme Ave"/>
    <busStop id="47517350.3" lane="-10663483_0" startPos="96.90" endPos="109.90" friendlyPos="true" name="Eglinton Ave West at Oakwood Ave"/>
    <busStop id="47517350.4" lane="-10663349_0" startPos="36.97" endPos="49.97" friendlyPos="true" name="Eglinton Ave West at Marlee Ave"/>
    <busStop id="47517672.0" lane="10663349_0" startPos="0.00" endPos="13.00" friendlyPos="true" name="Eglinton Ave West at Marlee Ave"/>
    <busStop id="47517672.1" lane="8593989_0" startPos="168.21" endPos="181.21" friendlyPos="true" name="Eglinton Ave West at Oakwood Ave"/>
    <busStop id="47517672.2" lane="20141745_0" startPos="38.58" endPos="51.58" friendlyPos="true" name="Eglinton Ave West at Glenholme Ave"/>
    <busStop id="47517672.3" lane="8677495_0" startPos="131.26" endPos="144.26" friendlyPos="true" name="Eglinton Ave West at Jimmy Wisdom Way"/>
    <busStop id="47517672.4" lane="30134812_0" startPos="175.68" endPos="188.68" friendlyPos="true" name="Eglinton Ave West at Dufferin St"/>
    <busStop id="47530153.1" lane="-20039583_0" startPos="2.64" endPos="15.64" friendlyPos="true" name="Oakwood Ave at Eglinton Ave West South Side"/>
    <busStop id="47530153.2" lane="-7748_0" startPos="56.34" endPos="69.34" friendlyPos="true" name="Oakwood Ave at Clovelly Ave"/>
    <busStop id="47530153.3" lane="-2302411_0" startPos="0.00" endPos="13.00" friendlyPos="true" name="Oakwood Ave at Vaughan Rd"/>
    <busStop id="47530153.4" lane="-8143_0" startPos="65.83" endPos="78.83" friendlyPos="true" name="Oakwood Ave at Jesmond Ave"/>
    <busStop id="47530153.5" lane="-8593793_0" startPos="179.36" endPos="192.36" friendlyPos="true" name="Oakwood Ave at Rogers Rd"/>
    <busStop id="47530521.4" lane="8571266_0" startPos="47.22" endPos="60.22" friendlyPos="true" name="Oakwood Ave at Rogers Rd"/>
    <busStop id="47530521.5" lane="8203_0" startPos="27.63" endPos="40.63" friendlyPos="true" name="Oakwood Ave at Jesmond Ave"/>
    <busStop id="47530521.6" lane="2302411_0" startPos="55.09" endPos="68.09" friendlyPos="true" name="Oakwood Ave at Vaughan Rd"/>
    <busStop id="47530521.7" lane="7809_0" startPos="35.81" endPos="48.81" friendlyPos="true" name="Oakwood Ave at Clovelly Ave"/>
    <busStop id="47530521.8" lane="20039582_0" startPos="11.01" endPos="24.01" friendlyPos="true" name="Oakwood Ave at Eglinton Ave West"/>
    <busStop id="47530619.0" lane="2302312_0" startPos="0.00" endPos="13.00" friendlyPos="true" name="Oakwood Ave at Vaughan Rd"/>
    <busStop id="47537308.0" lane="-14068268_0" startPos="36.00" endPos="49.00" friendlyPos="true" name="Vaughan Rd at Oakwood Ave East Side"/>
    <busStop id="47537308.1" lane="-30106845_0" startPos="17.75" endPos="30.75" friendlyPos="true" name="Vaughan Rd at Winona Dr East Side"/>
    <busStop id="47537308.2" lane="-10663526_0" startPos="12.48" endPos="25.48" friendlyPos="true" name="Vaughan Rd at Arlington Ave East Side"/>
    <busStop id="47537476.0" lane="10663526_0" startPos="1.52" endPos="14.52" friendlyPos="true" name="Vaughan Rd at Arlington Ave"/>
    <busStop id="47537476.1" lane="8128_0" startPos="30.07" endPos="43.07" friendlyPos="true" name="Vaughan Rd at Winona Dr West Side"/>
    <busStop id="47537476.2" lane="8125_0" startPos="52.51" endPos="65.51" friendlyPos="true" name="Jesmond Ave at Cedric Ave"/>
    <busStop id="47537476.3" lane="8162_0" startPos="30.95" endPos="43.95" friendlyPos="true" name="Jesmond Ave at Oakwood Ave"/>
    <busStop id="47539332.0" lane="8432383_0" startPos="0.00" endPos="13.00" friendlyPos="true" name="Dufferin St at Eglinton Ave West"/>
</additional>
