<?xml version="1.0" encoding="UTF-8"?>

<!-- generated on 2024-08-21 14:34:07 by Eclipse SUMO netconvert Version 1.19.0
<configuration xmlns:xsi="http://www.w3.org/2001/XMLSchema-instance" xsi:noNamespaceSchemaLocation="http://sumo.dlr.de/xsd/netconvertConfiguration.xsd">

    <input>
        <type-files value="data/sumo_networks/oakwood_village/oakwood_village_edge_types.typ.xml"/>
        <shapefile-prefix value="data/sumo_networks/oakwood_village/arcview/oakwood_village"/>
    </input>

    <output>
        <output-file value="data/sumo_networks/oakwood_village/oakwood_village_arterial.net.xml"/>
    </output>

    <projection>
        <proj.utm value="true"/>
    </projection>

    <processing>
        <geometry.min-radius.fix value="true"/>
    </processing>

    <tls_building>
        <tls.set value="13466793,13466630,13466455,13466268,13466110,13465860,13465569,13465038,13464719,13464096,13463674,13463463,13463195,14254942,13466729,13466516,13466312,13466199,13465946,13465671,13465140,13464821,13464212,13463285,13466609,13466399,13466287,13467239,13467080,13466851,13466653,13466444,13466322,13466083,13465714,13465263,13464913,13464342,13463436,13463015,13462557,13462319,13461921,13461419,13460295,13458407,13457785,13457078,13456650,13456266,13455496,13455032,13454680,13454250,13453893,13453356,13452847,13467389,13467163,13466960,13466743,13466536,13466418,13466250,13465822,13465361,13464999,13464427,13463548,13467303,13467083,13466858,13466666,13467506,13467345,13467123,13466931,13466730,13466604,13465980,13465733,13465166,13464585,30030178,13463747,13455720,13455899,13456085,13456348,13456522,13456819,13456902,13457135,13457359,13457449,13457668,13457799,13457863,13458084,13458244,13458567,13458706,13458928,13459036,13459187,13462724,13462302,13461870,13461005,13460576,13459836,13459295,13458486,13458353,13456543,13455466,13454662,13453915,13453045,13452638,13452017,13451297,13448689,13447597,13446936,13446142,13445250,13444390,13443870,13462712,13460221,13459852,13459279,13458404,13458104,13457453,13456361,13455270,13454606,13454075,13446901,13447347,13448187,13449983,13450880,13451718,13453920,13454337,13456025,13456405,13457171,13459028,13459344,13460017,13461056,13461342,13461467,13461728,13462643,13463293,13454867,13463129,13466234,13459122,13463942,13458625,13457987,13457422,13456999,13461334,13465478,13465144,13464490,13464116,13459659,13455882,13466940,13466826,13466923,13466862,20233509,13464451,13464461,13464436,13464438,13466894,13451513,13451762,13464728,13462446,13460340,13466407,13464667,13466978,13467173,13454763,13467722,13453844,13467301,13468047,13467993,13465121,13465837,13466497,13467067,13467437,13467631,13467798,13467909,13466117,13468377,13468584,13452308,13469945,13457301,13456681,13468647,13468803,13465959,13468970,13463577,13468486,13468687,13468807,13469683,13470022,13470070,13470353,13470414,13456648,13470475,13470536,13470566,13470610,13470639,13470661,13470690,13466427,13466241,13465795,13465567,13465179,13464785,13464403,13463777,13463124,13466633,13466482,13466341,13466150,13465979,13465366,13464912,13464607,13463953,13463078,13467593,13467394,13466064,13466136,13466829,13467040,13466887,13467204,13463947,13467856,13467505,13467308,13467124,13466982,13466288,13465836,13465489,13464674,13464094,13463374,13463537,13463717,13463771,13463914,13464003,13464162,13464254,13464409,13464550,13464658,13464879,13462375,13462813,13467252,13468126,13467372,20054541,13465757,13464080,13464758,13464943,13463880,13463030,13461868,13460526,13459690,13457395,13456958,13456556,13456244,13455655,13454572,13454061,13453312,13452981,13465715,13452437,13464373,13464653,13464817,13465043,13465260,13465512,13465876,13466139,13466332,13466509,13466753,13466917,13467077,13467247,13467064,13466999,13467231,13467463,13467841,13464908,13462109,13462012,13461936,13461839,13461657,13461561,13461356,13460978,13460749,13460523,13460329,13460034,13459820,13459445,13459232,13458963,13458805,13458312,13459088,13460223,13460568,13460822,13461057,13461421,13461912,13462427,13462844,13463183,13463478,13463705,13463796,13463892,13464177,13455448,13457874,13454001,13452352,13452053,13449204,13462785,13462552,13462390,13462422,13462648,13462801,13462867,13463123,13463350,13463441,13463482,13455129,13450145,13461587,13461687,13451491,13448254,13449023,13456692,13452717,13452372,13452266,13452186,13451645,13451566,13451412,13451212,13450818,13450484,13450163,13449830,13449501,13449378,13448868,13456762,13458308,13448786,13448547,13454354,13454875,13455135,13455428,13455749,13456031,13456468,13456952,13457330,13457965,13458367,13458742,13458463,13459022,13459576,13459757,13460075,13458180,13461456,13460964,13460112,13459249,13458943,13458761,13458334,13457986,13457092,13455948,13454288,13454071,13454107,13453978,13455296,13454752,13453963,13453588,13453302,13453221,13453001,13452869,13452476,13452119,13450997,13459361,13459569,13459957,13460119,13460757,13459985,13456851,13456521,13456330,13455952,13455585,13455179,13454814,13462247,13460848,13460975,13461271,13449158,13455968,13465901,13461343,13461554,13461822,13461950,13462285,13462582,13462755,13462962,13463080,13463232,13463893,13464218,13464510,13454486,13460123,13447211,13458530,13454511,13447579,13450708,13454239,13458543,13459040,13460639,13450770,13464232,13463863,13469285,13449511,13455708,13453216,13452323,13450472,13449013,13448310,13455247,13454909,13453888,13465635,13465039,13463440,13462698,13462239,13461829,13459968,13458802,13456926,13455910,13455040,13452283,13449500,13446896,13461025,13467859,13467971,13468374,13468571,13462718,13466443,13465231,13464948,13464855,13464597,13464498,13463494,13463187,13462806,13467096,13467464,13467650,13467715,13467817,13468436,13468360,13468559,13468605,13469271,13469355,13469508,13469568,13469672,13469800,13443090,13469954,13468621,13463778,13467698,13467129,13465564,13464716,13461391,13461238,13460444,13459076,13458304,13458241,13457985,13457446,13456568,13456094,13455715,13453198,13450342,13461074,13459367,13458419,13455973,13454953,13454472,13454197,13453646,13453125,13451388,13448570,13446042,13460197,13466425,13464313,13463882,13461488,13460901,13458159,13457150,13455007,13454825,13454098,13453281,13447779,13445306,13456414,13455359,13455506,13453783,13451688,13453034,13449368,13446608,13445096,13446105,13452897,13450231,13449671,13450242,13448536,13458101,13469719,13452395,13451254,13449637,13466677,13456152,13458477,13452469,13450611,13449593,13448602,13448236,13447964,13446795,13445452,13444532,13443242,13445078,13459032,13457585,13458804,13459980,13460348,13460561,13459236,13459689,13460029,13460235,13460600,13458538,13459010,13459436,13459601,13459931,13451793,13450847,13449607,13447770,13446970,13446031,13445431,13444609,13456854,13457237,13456424,13457594,13457319,13457532,13457710,13457798,13457776,13452130,13457277,13454488,13446743,13447299,13448838,13448519,13448199,13447843,13447496,13447139,13446827,13446514,13444062,13446212,13446592,13448822,13468994,13466818,13465055,13464097,13462163,13461563,13460559,13457178,13456687,13456080,13455765,13454806,13452733,13456371,13445039,13457580,13462466,13442440,13454501,13469594,13469239,13466915,13465491,13463854,13462655,13461140,13457759,13456668,13454154,13452362,13470244,13451725,13450874,13448991,13450069,13449067,13448338,13447758,13447531,13447128,13446814,13446468,13446509,13446551,13446373,13446075,13445746,13445476,13447810,13448296,13449822,13448911,13448645,13447360,13447751,13447007,13447395,13470305,13470438,13470261,13470006,13470586,13470456,13456432,13462184,13470314,13470230,13458434,13470120,13469971,13469914,13465297,13467261,13469211,13468811,13459156,13461680,13462619,13461916,13461355,13467307,13463137,13461594,13459849,13458216,13456327,13452047,13468751,13468898,13459955,13455182,13460292,13458553,13458825,13460587,13461384,13461451,13460056,13459587,13456841,13457929,13445027,13445882,13448931,13449874,13450142,13450665,13446584,13455580,13452576,13454661,13466055,13465575,13465362,13465276,13466977,13467665,13454407,13459229,13462196,13465273,13465581,13465356,13466022,13466116,13466246,13466699,13467486,13466640,13464820,13465212,13465447,13464829,13464524,13464402,13462730,13463277,13463585,13463664,13464191,13464361,13464852,13465319,13464724,13464073,13463938,13464892,13460231,13458332,13456322,13455137,13444838,13453983,13447932,13451069,13460447,13452894,13445219,13445612,13446996,13470164,13470179,13464649,13444761,13444423,13449708,13445257,13443696,13468073,13467918,13464771,13447453,13445553,13465976,13459781,13469402,13469458,13469498,13455228,13454195,13452416,14257757,13459070,13445922,13447550,13458214,13470147,13470217,13457697,13463253,13462968,13447423,13448704,13445659,13463468,13445401,13454453,13464965,13469262,13461228,13446581,13463605,13469379,13465525,13468541,13469998,13470138,13465545,13469317,13449541,13470082,13457713,13446333,14228400,13463744,13464154,13990825,13469240,13464341,13464598,13446799,13449416,13470207,13469216,13446062,13451515,13450486,13442747,13443021,13466317,13466647,13444619,13445484,13445861,13454827,13457191,13457321,13461126,13448917,13470148,13451305,13467689,13467737,13467848,13447827,13443403,13460801,13463207,13458256,13446884,13445821,13447673,13449592,13450852,13449373,13451058,13464618,13446230,13443490,13447884,13463425,13450358,13445301,13444902,13448840,13454466,13462409,13468183,13449802,13447083,13449192,13448217,13453652,13458442,13446875,13463813,13459282,13443721,13444601,13453572,13469530,13451789,13452853,13465397,13444794,13448559,13446954,13447210,13444899,13447951,13452171,13449201,13463165,13455564,13448487,13449866,13453033,13457151,13451923,13460210,13445549,13453501,13447350,13444318,13469133,13447492,13470350,13464815,13444903,13443302,13463602,13462293,13461675,13455525,13452797,13447880,13447807,13456838,13452791,13502957,13446543,13458358,13443837,13461907,13453914,13442528,13443573,13445327,13445637,13450514,13451065,13446349,13458615,13461240,13449668,13443979,13453613,13445713,13450532,13450773,13469460,13469836,13452055,13450294,13444508,13445461,13448693,13465705,13465703,13463530,13466944,13455618,13444705,13464031,14203989,13445290,13454299,13446436,13464157,13458815,13463074,13451700,13451068,13450081,13451218,13448907,13445757,13448765,13448718,13445899,13457328,13462870,13468469,13469755,13467106,13444158,13464778,13457669,13450029,13450908,13467277,13450601,14067768,13448470,13446504,13453013,13468530,13454454,13454313,13442848,13443095,13444901,13443751,13444019,13444536,13443726,13469403,13444138,13456826,13464720,13446302,13446226,13446677,13457927,13453966,13456252,13454817,13460140,13451997,13453059,13451358,13455730,13456890,13453576,13458920,13458507,13461037,13447240,13443562,13460207,13450660,13443760,13442179,13465882,13444260,13464619,13466069,13447529,13454278,13449519,13446432,13445900,13467412,13466559,13465664,13447223,13451893,13455699,13455626,13452501,13458687,13455799,13453882,13453246,13451705,13443775,13447093,13443374,13449155,13448755,13443575,13446676,13450723,13449077,13455408,13445175,13442643,13442730,13442866,13442967,13443046,13444088,13444148,13444278,13448171,13442457,13443970,13450728,13446300,13446091,13442123,13442003,13441814,13448888,13450331,13444869,13446092,13446837,13450370,13449213,13448605,13443303,13503044,13444590,13449995,13446040,13446359,13458633,13448601,13448285,13458112,13457060,13455866,13448292,13446357,13449857,13450103,13444409,13443752,13443640,13442521,13447120,13443509,13451044,13452977,13467654,13448484,13454328,13446033,13444817,13445128,13445620,13447608,13444586,13448866,13449359,13453602,13453096,13464470,13443499,13443916,13443081,13445764,13443525,13444313,13448166,13454932,13452693,13452124,13446629,13461072,13445474,13442540,13448130,13451253,13452617,13449294,13442251,13442174,13449973,13441740,14228218,13442279,13443314,14171575,13464606,13467056,13460172,13449250,13464559,13465160,13459286,13463535,13466217,13466689,13466833,13451802,13445760,13462936,13453320,13460625,13448727,13454978,13450586,13455284,13452038,13442867,13448109,13447719,13461050,13459913,13458807,13451125,13458925,13453497,13450779,13450372,13450226,13468564,13457583,13455455,13465995,13463516,13466258,13467775,13458384,13457261,13461913,13470192,13465025,13470367,13470270,13470081,13462889,13466049,13460183,13458435,13455463,13467321,13468211,13470354,13468871,13470434,13470452,13455263,13469743,13462260,13467983,13468148,13467944,13467560,13445956,13469783,13466618,13461167,13469052,13469627,13442522,13469504,13458683,13454346,13469154,13469034,20080595,13454242,13457600,13465556,13468572,13465052,13446221,13448975,13458710,13461623,13446506,13446623,13465422,13462349,13458464,13443860,13444143,13441903,13442811,13457764,13464462,13451519,13451309,13455405,13442364,13447596,13446229,13457472,13460582,13453141,13456978,13460241,13442585,13444177,13442715,13445906,13446002,13453958,13443179,13463787,13455700,13464586,13463512,13467011,13464286,13468745,13442033,13449130,13442901,13444801,13463998,13467706,13462686,13463362,13463733,13451786,13450458,13468195,13455332,13458124,13451832,13463579,13442651,13444956,13464071,13467695,13456360,13448232,13459347,13459970,13460466,13444720,20046140,13468080,13465966,13451553,13464963,13442443,13453022,13442502,13442432,13444382,13462180,13444330,13445134,13455864,13460924,13461359,13462783,13466844,13456793,13449737,13456135,13459140,13468568,13448065,13454013,13445921,13446518,13444344,13453804,13468529,13464231,13463233,13453185,13466770,13454290,13454092,13454143,13444341,13468685,13444337,13448378,13449474,13461619,13445429,13443237,13443108,13460873,13452740,13466048,13466857,13464545,14303953,30021549,30012605,13466247,13446387,13449574,14303959,13467481,13467525,13442145,13441677,13441649,13442036,13442762,13449048,13453266,13457923,13460535,13442843,13451900,13445842,13445903,13441856,13442139,13468520,13453152,13443810,13442140,13447070,13448814,13449421,13446011,13446145,13468356,13446985,13466034,13450610,13444748,13443247,13465112,13450205,13448352,13468202,13446018,13451595,13460145,13453553,13442882,13443507,13458987,13446475,13448597,13451672,13442514,13444470,13441709,14038170,13467752,13448007,13444135,13457938,20154546,13441658,13451959,13464592,13442499,13445414,13449783,13450148,13441635,13442839,13443354,13444752,13449110,30003380,13441776,13451896,13450859,13459821,13444656,13441919,13443239,13441891,13443955,13444687,13451819,13463827,13441833,13445095,13445621,13463868,13445197,13460160,13441706,13468134,13467763,13454774,13441926,13441620,13443245,13453008,13442363,13442074,13467923,13466852,13449584,13467572,13446213,13468663,13465217,13457136,13461160,13442114,13443377,13450711,13444464,13461848,13442063,13974857,13465527,13457696,13462381,13447821,13447518,13460715,13444398,13448413,13448492,13442071,13455330,13441912,13460862,13451886,13464769,13455731,13447994,13468053,13458449,13442196,13448501,13449142,13443298,13441762,13443118,13454469,13460786,13444522,13445655,13462876,13465850,20234111,13466789,13445652,13460459,13459714,13455990,20235610,13450184,13462685,13461471,13467454,13457121,13451351,13450584,13459570,13449194,13450552,13459073,13449931,13453489,13455913,13461408,13443928,13443052,13445817,13457627,13467896,13448098,13456719,13456734,13467601,13464590,13443753,13441692,13442597,13444084,13466674,13470504,13441579,13466538,13502718,13445427,13458203,13502488,13465282,13463573,13449081,13442384,13450111,14020768,13446952,13451539,13447724,13448067,13456161,13442903,14228223,13462068,13447703,13449417,13467795,13466037,13456415,13451799,13456270,20006124,13449279,13444498,13465434,13442276,13465036,13973964,13441651,13464278,13446751,13469405,13452101,13446607,13458957,13453093,13465359,13458660,13468303,13465784,14134885,13458006,30016928,13448358,14675360,13445277,13443378,13975054,13445796,13463685,13447325,13452173,13464417,13464960,13451299,13441801,14673438,13463790,13461876,13452369,13455941,13456247,13467331,13446272,13446969,13446617,13448318,13442796,14673411,13445040,13458224,13466759,13443957,13448543,13463462,13442992,13441963,13442606,13443821,13442002,14074105,13455354,13449960,13443229,13454567,13454784,13441775,13446304,13456773,13447523,13466722,13468182,13467393,13466991,13973019,13460586,13444733,13442983,13442549,13469941,13443156,13448963,13451378,13451634,13446880,13445741,13465149,13469193,13457547,13455026,13445495,13457877,13466878,13466194,13465538,13466733,13460032,13467586,13453318,13456008,13459528,13468120,13463235,13465059,14065206,14228180,13444657,13465560,13465571,13449731,13467571,13458026,13450594,13457926,14256202,13453473,13462745,14203394,13445966,13466586,13468370,13464799,13459482,13449395,13467569,13469267,13454996,13468412,13454880,20111021,13460834,13466646,13455830,13443404,13443301,13444818,13442631,13450806,13465716,13447353,13456228,13455524,13468224,13447829,13448105,13463249,14255079,14255084,14255097,13464440,13453194,13458523,13458149,13470013,13464722,13465389,13460187,13468786,13465391,13466531,13466493,14074098,13443379,13463344,13469442,13973615,13459423,13453946,13453765,30021322,13461969,13452467,14630472,13447460,13470377,14038257,13453918,13466249,13466020,13466440,13466205,13466590,13466333,13466587,13466475,13467348,13467329,13462329,13456611,13448440,13455608,30011525,13446886,14067820,14228258,13450366,13446218,20146478,13468465,13465269,13442679,14677895,13464520,13469141,13469793,13455421,13452801,13449330,13457834,13460275,13461064,13470389,13460821,13459782,13453590,13464406,13456272,13462900,13467160,13464377,13464616,13467191,13464022,13463000,13463150,13459158,14172279,13460071,13444194,30017743,13469208,13464666,13451132,30005930,14254067,30005897,20058458,13441723,14674473,14256135,14606950,14173872,13444492,13450508,13454905,13462021,13463395,13459962,13448088,13449947,13441616,13455170,13454866,13450206,13447955,13456916,13452253,20362193,13457727,13451185,13442883,13447680,13447313,13447414,20056886,13455052,13464161,13464453,13462937,13466676,13467150,30013028,13451881,13442771,13468106,13464529,13445715,13452647,13451008,13447415,13448803,13460471,13457705,13447653,13453898,13449536,14177831,13442417,13465201,30064112,13452175,13453828,13451292,13466880,13466556,13455320,20230204,20142358,20142354,13448189,20149169,13455397,13469026,13470205,13470146,13454463,13455043,14659127,13467444,13456893,13470125,13458423,30020236,13446496,13459999,13468117,13459646,30032673,20364357,13458175,13443533,14236850,14228233,14303972,13442146,13443911,13442802,13453971,13445421,13453581,13454035,13447911,13447752,13446602,13450191,13451060,13459399,20111835,13465557,30043812,30060839,20147074,13973648,13463834,13462244,13451422,13448608,14066794,13452922,30040114,30000538,13460708,13461874,13444119,13975105,13459796,13453815,13456030,13464439,13459538,13460454,13469038,13468457,13464013,13464805,13467244,13442801,14624109,13454685,13456733,13446835,13454887,13456203,13453517,13452529,13448652,13442211,13442084,13443668,13442632,30021269,13455348,13466279,13459054,13449763,13466240,13466454,13442793,13470100,13458075,13466105,13449121,14184392,13467337,13468805,13447916,20146726,13451335,13452238,13466900,30020099,30020370,30000992,30020931,13464296,30020021,30020057,30020519,30058425,30040977,13442803,13453944,13453443,13454300,13458934,13452551,13458238,13446566,30103926,13446642,13445987,13442418,30034671,30034674,13443617,13448994,30029059,30029092,20233934,13462084,13443900,13449953,13450841,13467925,13468026,13467370,13464371,13448311,13465154,13445262,13454283,30053441,13457222,13454439,13468619,20015401,13449352,13451124,13467842,13468280,13469206,13445384,20054129,13969945,13449271,13467425,13466389,13467935,13458898,13464056,13467485,13465058,13454478,13454578,30005146,30053128,13461263,13467969,13455979,13466754,13464556,13456192,13454780,13463382,13463167,13462931,30044440,13445288,13459130,13463659,13456374,13444463,13444674,13444072,14303889,13447218,20054557,13468144,13467028,30080309,30080306,13455771,13450676,13459488,13468466,13468316,14134889,13468181,13468022,14130687,13461975,30119449,13464495,13453536,13460350,13468306,30121659,13468097,13467982,13453761,13466032,30110360,13457690,20117865,30025385,13461616,13469526,13448272,13975289,13460681,13455561,20058480,13466382,13468549,13461709,13466756,13459808,13458460,13448702,13469443,13462923,13463464,13469497,13456849,13454051,13448022,13441950,13451873,13462555,13470516,13461722,13455915,13447647,30023104,13442192,13466030,13466374,13466347,13464919,13457552,13464889,13466235,13449176,13457650,13461051,13462886,13469989,30007061,13461075,13464872,13466717,13461499,13451311,13464734,13462638,30001994,13465245,13468683,14249902,13456723,13456935,13455403,13441715,13449113,13455059,13466693,13462262,13467726,13456082,13467884,13462567,13463924,13467759,13455343,13446622,13441955,13464088,13468606,30144818,30144852,13449243,13462553,13448879,13466813,13463143,13457100,13464117,30058422,13458916,13449162,13461783,13463931,13462566,13448953,13465842,13464434,13446227,13443040,13443353,20146763,13454000,14303945,30136534,30070005,13462794,13466910,13450946,13465956,13451329,13449811,13467037,13467015,13453545,13452812,13463034,13464125,13466492,13464408,13442682,30122711,13446434,13459487,13465623,13468431,13467459,13467854,13465453,30026352,13467592,13467403,13457815,30010746,13465936,13466685,13469883,13458725,13461427,13455590,13462990,13469789,13463794,30137961,30112870,13463434,13502465,13458803,13469877,13447031,13467433,13467278,13453748,13463084,13446769,13466203,13467736"/>
        <tls.rebuild value="true"/>
    </tls_building>

    <edge_removal>
        <remove-edges.isolated value="true"/>
    </edge_removal>

    <junctions>
        <no-turnarounds.tls value="true"/>
    </junctions>

    <formats>
        <shapefile.street-id value="LINK_ID"/>
        <shapefile.from-id value="REF_IN_ID"/>
        <shapefile.to-id value="NREF_IN_ID"/>
        <shapefile.type-id value="FUNC_CLASS"/>
        <shapefile.laneNumber value="nolanes"/>
        <shapefile.speed value="speed"/>
        <shapefile.name value="ST_NAME"/>
    </formats>

</configuration>
-->

<net version="1.16" junctionCornerDetail="5" limitTurnSpeed="5.50" xmlns:xsi="http://www.w3.org/2001/XMLSchema-instance" xsi:noNamespaceSchemaLocation="http://sumo.dlr.de/xsd/net_file.xsd">

    <location netOffset="-624810.18,-4837337.75" convBoundary="0.00,0.00,1821.25,2274.14" origBoundary="-79.451169,43.678420,-79.428898,43.698849" projParameter="+proj=utm +zone=17 +ellps=WGS84 +datum=WGS84 +units=m +no_defs"/>

    <type id="201200" priority="4" numLanes="4" speed="13.89" oneway="0"/>
    <type id="201300" priority="3" numLanes="2" speed="12.50" oneway="0"/>
    <type id="201400" priority="3" numLanes="2" speed="12.50" oneway="0"/>
    <type id="201500" priority="2" numLanes="2" speed="12.50" oneway="0"/>
    <type id="201700" priority="1" numLanes="1" speed="4.17" oneway="0"/>
    <type id="204001" priority="1" numLanes="1" speed="5.56" oneway="0"/>

    <edge id=":13458466_0" function="internal">
        <lane id=":13458466_0_0" index="0" speed="13.89" length="14.43" shape="1126.15,2251.15 1112.51,2246.44"/>
        <lane id=":13458466_0_1" index="1" speed="13.89" length="14.43" shape="1127.20,2248.13 1113.55,2243.42"/>
        <lane id=":13458466_0_2" index="2" speed="13.89" length="14.43" shape="1128.24,2245.10 1114.59,2240.39"/>
        <lane id=":13458466_0_3" index="3" speed="13.89" length="14.43" shape="1129.28,2242.08 1115.64,2237.37"/>
    </edge>
    <edge id=":13458466_4" function="internal">
        <lane id=":13458466_4_0" index="0" speed="10.54" length="3.25" shape="1129.28,2242.08 1126.53,2240.36"/>
    </edge>
    <edge id=":13458466_5" function="internal">
        <lane id=":13458466_5_0" index="0" speed="3.65" length="1.44" shape="1129.28,2242.08 1128.41,2240.93"/>
    </edge>
    <edge id=":13458466_17" function="internal">
        <lane id=":13458466_17_0" index="0" speed="10.54" length="21.34" shape="1126.53,2240.36 1124.89,2239.35 1122.51,2234.87 1122.14,2228.66 1123.78,2220.70"/>
    </edge>
    <edge id=":13458466_18" function="internal">
        <lane id=":13458466_18_0" index="0" speed="3.65" length="3.23" shape="1128.41,2240.93 1128.29,2240.04 1128.93,2239.42 1130.33,2239.05"/>
    </edge>
    <edge id=":13458466_6" function="internal">
        <lane id=":13458466_6_0" index="0" speed="6.63" length="9.12" shape="1129.85,2222.76 1129.47,2225.24 1129.94,2227.27 1131.27,2228.85 1133.46,2229.98"/>
        <lane id=":13458466_6_1" index="1" speed="7.44" length="11.75" shape="1129.85,2222.76 1129.06,2226.58 1129.22,2229.56 1130.34,2231.70 1132.42,2233.00"/>
    </edge>
    <edge id=":13458466_8" function="internal">
        <lane id=":13458466_8_0" index="0" speed="10.06" length="23.77" shape="1126.82,2221.73 1123.72,2230.67 1120.65,2236.77 1117.61,2240.01 1114.59,2240.39"/>
        <lane id=":13458466_8_1" index="1" speed="9.42" length="20.71" shape="1126.82,2221.73 1124.13,2229.33 1121.37,2234.48 1118.54,2237.15 1115.64,2237.37"/>
    </edge>
    <edge id=":13458466_10" function="internal">
        <lane id=":13458466_10_0" index="0" speed="3.65" length="4.68" shape="1126.82,2221.73 1125.67,2222.61 1124.78,2222.73 1124.16,2222.09 1123.78,2220.70"/>
    </edge>
    <edge id=":13458466_11" function="internal">
        <lane id=":13458466_11_0" index="0" speed="5.25" length="5.68" shape="1119.81,2225.27 1120.75,2219.67"/>
    </edge>
    <edge id=":13458466_12" function="internal">
        <lane id=":13458466_12_0" index="0" speed="13.89" length="14.44" shape="1119.81,2225.27 1133.46,2229.98"/>
        <lane id=":13458466_12_1" index="1" speed="13.89" length="14.44" shape="1118.77,2228.29 1132.42,2233.00"/>
        <lane id=":13458466_12_2" index="2" speed="13.89" length="14.44" shape="1117.73,2231.32 1131.37,2236.03"/>
        <lane id=":13458466_12_3" index="3" speed="13.89" length="14.44" shape="1116.68,2234.34 1130.33,2239.05"/>
    </edge>
    <edge id=":13458466_16" function="internal">
        <lane id=":13458466_16_0" index="0" speed="3.65" length="1.44" shape="1116.68,2234.34 1117.55,2235.49"/>
    </edge>
    <edge id=":13458466_19" function="internal">
        <lane id=":13458466_19_0" index="0" speed="3.65" length="3.23" shape="1117.55,2235.49 1117.67,2236.38 1117.03,2237.00 1115.64,2237.37"/>
    </edge>
    <edge id=":13458471_0" function="internal">
        <lane id=":13458471_0_0" index="0" speed="5.29" length="5.70" shape="1112.32,2246.38 1111.29,2251.98"/>
    </edge>
    <edge id=":13458471_1" function="internal">
        <lane id=":13458471_1_0" index="0" speed="13.89" length="14.60" shape="1112.32,2246.38 1098.55,2241.92"/>
        <lane id=":13458471_1_1" index="1" speed="13.89" length="14.60" shape="1113.36,2243.35 1099.52,2238.87"/>
        <lane id=":13458471_1_2" index="2" speed="13.89" length="14.60" shape="1114.40,2240.33 1100.48,2235.82"/>
        <lane id=":13458471_1_3" index="3" speed="13.89" length="14.60" shape="1115.45,2237.30 1101.44,2232.77"/>
    </edge>
    <edge id=":13458471_5" function="internal">
        <lane id=":13458471_5_0" index="0" speed="3.65" length="1.44" shape="1115.45,2237.30 1114.58,2236.16"/>
    </edge>
    <edge id=":13458471_17" function="internal">
        <lane id=":13458471_17_0" index="0" speed="3.65" length="3.23" shape="1114.58,2236.16 1114.46,2235.27 1115.10,2234.64 1116.49,2234.28"/>
    </edge>
    <edge id=":13458471_6" function="internal">
        <lane id=":13458471_6_0" index="0" speed="13.89" length="14.94" shape="1105.29,2220.56 1119.62,2225.20"/>
        <lane id=":13458471_6_1" index="1" speed="13.89" length="14.94" shape="1104.33,2223.61 1118.58,2228.23"/>
        <lane id=":13458471_6_2" index="2" speed="13.89" length="14.94" shape="1103.37,2226.66 1117.54,2231.25"/>
        <lane id=":13458471_6_3" index="3" speed="13.89" length="14.94" shape="1102.40,2229.71 1116.49,2234.28"/>
    </edge>
    <edge id=":13458471_10" function="internal">
        <lane id=":13458471_10_0" index="0" speed="10.42" length="3.48" shape="1102.40,2229.71 1105.42,2231.45"/>
    </edge>
    <edge id=":13458471_11" function="internal">
        <lane id=":13458471_11_0" index="0" speed="3.65" length="1.44" shape="1102.40,2229.71 1103.31,2230.84"/>
    </edge>
    <edge id=":13458471_18" function="internal">
        <lane id=":13458471_18_0" index="0" speed="10.42" length="21.40" shape="1105.42,2231.45 1107.09,2232.41 1109.62,2236.85 1110.01,2243.05 1108.25,2251.01"/>
    </edge>
    <edge id=":13458471_19" function="internal">
        <lane id=":13458471_19_0" index="0" speed="3.65" length="3.23" shape="1103.31,2230.84 1103.45,2231.72 1102.83,2232.36 1101.44,2232.77"/>
    </edge>
    <edge id=":13458471_12" function="internal">
        <lane id=":13458471_12_0" index="0" speed="6.52" length="9.12" shape="1102.15,2249.05 1102.58,2246.56 1102.13,2244.55 1100.78,2243.00 1098.55,2241.92"/>
        <lane id=":13458471_12_1" index="1" speed="7.34" length="11.83" shape="1102.15,2249.05 1103.01,2245.23 1102.86,2242.26 1101.69,2240.14 1099.52,2238.87"/>
    </edge>
    <edge id=":13458471_14" function="internal">
        <lane id=":13458471_14_0" index="0" speed="10.14" length="23.79" shape="1105.20,2250.03 1108.47,2241.08 1111.61,2234.97 1114.64,2231.69 1117.54,2231.25"/>
        <lane id=":13458471_14_1" index="1" speed="9.50" length="20.75" shape="1105.20,2250.03 1108.04,2242.41 1110.86,2237.25 1113.68,2234.54 1116.49,2234.28"/>
    </edge>
    <edge id=":13458471_16" function="internal">
        <lane id=":13458471_16_0" index="0" speed="3.65" length="4.67" shape="1105.20,2250.03 1106.33,2249.13 1107.21,2248.99 1107.85,2249.62 1108.25,2251.01"/>
    </edge>
    <edge id=":13458511_0" function="internal">
        <lane id=":13458511_0_0" index="0" speed="6.49" length="9.03" shape="1037.21,2222.57 1034.76,2222.17 1032.78,2222.65 1031.27,2224.01 1030.21,2226.25"/>