<?xml version="1.0" encoding="UTF-8"?>

<!-- generated on 2024-08-21 14:34:29.974414 by routeSampler.py UNKNOWN
<configuration>
    <route-files value="data/processed/oakwood_village/initial_route_file.rou.xml"/>
    <turn-files value="data/processed/oakwood_village/turning_movements.xml"/>
    <output-file value="data/sumo_networks/oakwood_village/oakwood_village_routes.rou.xml"/>
    <begin value="28800"/>
    <end value="34200"/>
    <total-count value="5022"/>
</configuration>
-->

<routes xmlns:xsi="http://www.w3.org/2001/XMLSchema-instance" xsi:noNamespaceSchemaLocation="http://sumo.dlr.de/xsd/routes_file.xsd">
<!-- begin="28800.0" end="29700.0" -->
    <vehicle id="28800_0" depart="28800.17">
        <route edges="30025326 8570813 -8433 -8411 -11129688 8593793 8203 -8162 -8144 -8125 -8128 -30106845 30106845"/>
    </vehicle>
    <vehicle id="28800_1" depart="28801.69">
        <route edges="30106844 30106845 8128 8096 8064 14067925 14067926 8026 14068267 14068268 7968 2302332 2302312 2302307 -2302307"/>
    </vehicle>
    <vehicle id="28800_2" depart="28801.89">
        <route edges="8691 11129683 8662 -8741 -8740 8715 -20042474 -20042473 -14068286 -30119928 -30119927 -14068233 -14068232 8809 -8809"/>
    </vehicle>
    <vehicle id="28800_3" depart="28802.09">
        <route edges="-7694 -7662 -7707 7747 -7809 -2302307 -2302312 -2302332 -10706173 -7985 -2302411 -8083 -8143 -8163 -8203 -8593793 -8571266 -9278277 -9278266 -8538 -30119928 -30119927 -14068233 -14068232 -8830 8850 8869 -8490848"/>
    </vehicle>
    <vehicle id="28800_4" depart="28802.59">
        <route edges="20042497 20042498 -7888 -7873 -7857 -30096310 -30096338 -30096337 -30096312 -7951 7934 7749 -7700"/>
    </vehicle>
    <vehicle id="28800_5" depart="28802.63">
        <route edges="-8383 8383 14067367 14067368 14067366 30106844 30106845 8128 8096 8064 14067925 14067926 8026 14068267 14068268 7968 7932 7889 7871 7867 30105849 30105850 10663577 7797 30011644 30011645 30134812 12601268"/>
    </vehicle>
    <vehicle id="28800_6" depart="28802.85">
        <route edges="8571067 -20141746 -20141745 -10663483 -20039583 -20039582 -8593971 -7695 -7748 -7809 -2302307 -2302312 -2302332 -7968 -14068268 -14068267 -8026 -14067926 -14067925 -8064 -8096 -8128 -30106845"/>
    </vehicle>
    <vehicle id="28800_7" depart="28803.44">
        <route edges="-30017570 7617 7628 -7636 7661 -7707 7747 -7809 -2302307 -2302312 -2302332 -7968 -14068268 -14068267"/>
    </vehicle>
    <vehicle id="28800_8" depart="28805.10">
        <route edges="-20062285 -20062284 -14068216 -8083 -8143 -8163 -8203 -8593793 11129688 8411 8433 8463 -8537 -20042466 20042484 -20042484"/>
    </vehicle>
    <vehicle id="28800_9" depart="28805.48">
        <route edges="-8219 8219 11129896 8198 8194 30106844 30106845 30128879 30096315 30096317 30096327 -30096312 -7951 7934 7749 -7700"/>
    </vehicle>
    <vehicle id="28800_10" depart="28806.04">
        <route edges="8608491 8608523 8608502 10663339 10663385 20062227 -20062227 -10663385"/>
    </vehicle>
    <vehicle id="28800_11" depart="28806.33">
        <route edges="-8457112 8457112 8099 7967 7904 30011644 30011645 -8649755 7652"/>
    </vehicle>
    <vehicle id="28800_12" depart="28809.93">
        <route edges="14063804 8999 -8870 -8846 8846"/>
    </vehicle>
    <vehicle id="28800_13" depart="28811.08">
        <route edges="-20141745 -10663483 -20039583 -20039582 -8593971 -7695 -7748 -7809 -2302307 2302307"/>
    </vehicle>
    <vehicle id="28800_14" depart="28812.06">
        <route edges="30096327 -30096312 -8173 -8194 -8198 -14067476 -14067478 -14067477 8383 8566857 -8459 9278364 9270628 -8804 8829 8830"/>
    </vehicle>
    <vehicle id="28800_15" depart="28816.15">
        <route edges="-30096326 30096327 -30096312 -8173 30106844 30106845 -30106848 -30106847"/>
    </vehicle>
    <vehicle id="28800_16" depart="28816.20">
        <route edges="-7797 7797 30011644 30011645 -8649755 7652"/>
    </vehicle>
    <vehicle id="28800_17" depart="28819.82">
        <route edges="-20039614 -14067894 -7867 -7871 -7889 14068331 -14068331"/>
    </vehicle>
    <vehicle id="28800_18" depart="28819.83">
        <route edges="-14068216 2302411 7985 10706173 2302332 2302312 2302307 7809 7748 7695 8593971 20039582 20039583 -8593989 -10663349 -10663385 -10663339 -8608502 -8608523 -8608491 -7506 -30017572"/>
    </vehicle>
    <vehicle id="28800_19" depart="28820.64">
        <route edges="-8273 -8246 -8227 -8593793 -8571266 -30017565 -30017564 -8426 -8406 -8414 -8566857 -8383 -8364"/>
    </vehicle>
    <vehicle id="28800_20" depart="28822.05">
        <route edges="-2302307 2302307 7809 7748 7695 8593971 20039582 20039583 -8593989 -10663349 -10663385 -10663339 -8608502 -30017549"/>
    </vehicle>
    <vehicle id="28800_21" depart="28822.63">
        <route edges="7946 7947 -8081 8457112"/>
    </vehicle>
    <vehicle id="28800_22" depart="28824.46">
        <route edges="8874 1140225 -1140225 -8874 8871 8685 8539 8540 14072115 14072116 20042487 20042488 9781127 9781088 9781140 8065 30093308 30093309 9741259 20091987 20091988 -30134812 -8649755 -8677495 -20141746 -20141745 -10663483 -8593989 -20039591"/>
    </vehicle>
    <vehicle id="28800_23" depart="28824.68">
        <route edges="30017549 -8608523 8608523"/>
    </vehicle>
    <vehicle id="28800_24" depart="28826.16">
        <route edges="-20062227 10663349 -20039591 -7646 -7662 -7707 -7719 -7761 7808"/>
    </vehicle>
    <vehicle id="28800_25" depart="28826.43">
        <route edges="-30093318 -30093313 30093309 9741259 20091987 20091988 -30134812 -8649755 -8677495 -20141746 -20141745 -10663483 -8593989 -10663349 -10663385 -10663339 -30066335 -30066334 -7629 -7636"/>
    </vehicle>
    <vehicle id="28800_26" depart="28826.70">
        <route edges="7808 -2302307 -2302312 -2302332 -7968 -14068268 -14068267 -8026"/>
    </vehicle>
    <vehicle id="28800_27" depart="28827.49">
        <route edges="-8026 8026 14068267 14068268 7968 2302332 2302312 2302307 7809 7748 7695 8593971 20039582 20039583 -8593989 8593989"/>
    </vehicle>
    <vehicle id="28800_28" depart="28827.71">
        <route edges="30119930 -30119930 30119928 8538 9278266 9278277 8571266 11129688 8411 8433 8463 8488 8515"/>
    </vehicle>
    <vehicle id="28800_29" depart="28827.84">
        <route edges="-2302307 2302307 7809 7748 7695 8593971 20039582 20039583 -8593989 -10663349 -10663385 -10663339 -8608502 -30017549"/>
    </vehicle>
    <vehicle id="28800_30" depart="28828.00">
        <route edges="14067720 14067368 14067366 30106844 30106845 8158"/>
    </vehicle>
    <vehicle id="28800_31" depart="28828.28">
        <route edges="-20039617 -2302307 -2302312 -2302332 -10706173 -7985 -2302411 -8083 -8143 -8163 -8203 -8593793 11129688 8411 8433 8463 -8537 -20042466 -20042465 -8741"/>
    </vehicle>
    <vehicle id="28800_32" depart="28829.38">
        <route edges="-20039583 -20039582 -8593971 -7695 -7748 -7809 -2302307 -2302312 -2302332 -7968 -14068268 -14068267 -8026 -14067926 -14067925 -8064 -8096 -8128 -30106845 -30106844 -8194 -8198 -11129896 -8219 8219"/>
    </vehicle>
    <vehicle id="28800_33" depart="28830.05">
        <route edges="8065 30093308 30093309 9741259 20091987 20091988 -30134812 -8649755 -8677495 -20141746 -20141745 -10663483 -20039583 -20039582"/>
    </vehicle>
    <vehicle id="28800_34" depart="28830.30">
        <route edges="-8196 -8163 -8203 -8593793 11129688 8411"/>
    </vehicle>
    <vehicle id="28800_35" depart="28831.02">
        <route edges="-8173 30106844 30106845 8128 8096 8064 14067925 14067926 8026 14068267 14068268 7968 2302332 2302312 2302307 7809 7748 7695 8593971 20039582 20039583 -8593989 -10663349 -10663385 -10663339 -8608502 -30017549"/>
    </vehicle>
    <vehicle id="28800_36" depart="28832.34">
        <route edges="-8196 -8163 -8203 -8593793 -8571266 -30017565 -30017564 -8426 -8406 -8414 -8459 -8543 -8582 -10663662 -10663629 -8705 -8704 -8763 8491516"/>
    </vehicle>
    <vehicle id="28800_37" depart="28832.66">
        <route edges="7629 30066334 30066335 -8608502 -8608523 -8608491 -7506 7506"/>
    </vehicle>
    <vehicle id="28800_38" depart="28834.18">
        <route edges="7947 -7947 7920 -7867 -7871 -7889 -7932 -7968 -14068268 -14068267 -8026 -14067926 -14067925 -8064 -8096 -8128 -30106845 -30106844 -8194 -8198 -11129896 -8219 -14067387 -14067386 -8425 -8424"/>
    </vehicle>
    <vehicle id="28800_39" depart="28835.79">
        <route edges="20042497 20042498 -7888 -7873 -7857 -30096310 -30096338 -30096337 -30096312 -7951 7934 7749 -7700"/>
    </vehicle>
    <vehicle id="28800_40" depart="28836.50">
        <route edges="-20042487 20042487 20042488 9781127 9781088 9781140 8065 30093308 30093309 -30093306 -30093305 -30093302 7904 30011644 30011645 30134812"/>
    </vehicle>
    <vehicle id="28800_41" depart="28837.49">
        <route edges="-20141746 -20141745 -10663483 -20039583 -20039582 -8593971 -7695 -7748 -7809 -2302307 -2302312 -2302332 -10706173 -7985 -2302411 -8083 -8143 8196"/>
    </vehicle>
    <vehicle id="28800_42" depart="28838.06">
        <route edges="7628 7629 30066334 30066335 -8608502 -8608523 -8608491 -7506 7506"/>
    </vehicle>
    <vehicle id="28800_43" depart="28838.71">
        <route edges="-8463 -8433 -8411 -11129688 8593793 8203 -8162 -8144 -8125 -8128 30128879 30096315 30096317 30096326 30096354 -30096356"/>
    </vehicle>
    <vehicle id="28800_44" depart="28839.75">
        <route edges="-14068209 -14068208 -7889 -7932 -10706173 -7985 -2302411 -8083 -8143 -8163 -8203 8227 8246 8273 -8434"/>
    </vehicle>
    <vehicle id="28800_45" depart="28839.95">
        <route edges="10663526 8219 11129896 -14067476 14067720 14067368 14067608"/>
    </vehicle>
    <vehicle id="28800_46" depart="28840.11">
        <route edges="20039568 -14067895 -14067894 -7867 -7871 14068208 14068209 7946 7947"/>
    </vehicle>
    <vehicle id="28800_47" depart="28840.14">
        <route edges="30106852 -30106847 30106850 30106851 30106845 8128 8096 8064 14067925 14067926 8026 14068267 14068268 7968 2302332 2302312 2302307 -7808 -7782 -7781"/>
    </vehicle>
    <vehicle id="28800_48" depart="28840.30">
        <route edges="30119938 30119943 30119944 -20042473 -14068286 8538 9278266 9278277 8571266 11129688 8411"/>
    </vehicle>
    <vehicle id="28800_49" depart="28840.37">
        <route edges="10663349 -20039591 -7646 -7662 -7707 -7719 -7761 -7782 -7821 -7874 -14067872 -14067871 -8096 -8128 -30106845 -30106844 -8194 -8198 -14067476 14067720 14067368"/>
    </vehicle>
    <vehicle id="28800_50" depart="28841.51">
        <route edges="10663339 10663385 20062227 -20062227 -10663385 -10663339 -30066335 -30066334"/>
    </vehicle>
    <vehicle id="28800_51" depart="28841.85">
        <route edges="-30093313 30093309 -30093306 -30093305 -30093302 7904 -7797 -10663577 -30105850 -30105849 -7867 -7871 -7889 -7932 -7968 -14068268 -14068267 -8026 -14067926 -14067925 -8064 -8096 -8128 -30106845 -30106844 -8194 -8198 -11129896 -8219 -14067387 -14067386 -8425 14068495"/>
    </vehicle>
    <vehicle id="28800_52" depart="28844.55">
        <route edges="7873 -14067872 -14067871 8064 14067925 14067926 8026 14068267 14068268 7968 7932 7889 7871 7867 30105849 30105850 10663577 7797 30011644 30011645 -8649755 7652"/>
    </vehicle>
    <vehicle id="28800_53" depart="28844.86">
        <route edges="-20042506 -20042497 8026 14068267 14068268 7968 2302332 2302312 2302307 7809 7748 7695 -7695"/>
    </vehicle>
    <vehicle id="28800_54" depart="28846.98">
        <route edges="14068277 -14068277 -8582 -14068241 -14068240 8553 14067367 14067368 14067366 30106844 30106845 8128 8096 8064 14067925 14067926 8026 -8145"/>
    </vehicle>
    <vehicle id="28800_55" depart="28847.52">
        <route edges="-14068217 -14068216 2302411 7985 10706173 2302332 2302312 2302307 7809 7748 7695 8593971 20039582 20039583 -8593989 -10663349 -10663385 -10663339 -30066335 -30066334"/>
    </vehicle>
    <vehicle id="28800_56" depart="28850.52">
        <route edges="8809 8810 -8734 30119927 30119928 8538 9278266 9278277 8571266 8593793 8203 8163 8143 8083 2302411 7985 10706173 2302332 2302312 2302307 -7808 7761 -7718 -7741 -7740 -7726 -7700"/>
    </vehicle>
    <vehicle id="28800_57" depart="28851.55">
        <route edges="8685 -8515 -8488 -8463 -8433 -8411 -11129688 8593793 8203 -8162 -8144 -8125 -8128 8158"/>
    </vehicle>
    <vehicle id="28800_58" depart="28851.97">
        <route edges="7727 7628 -7636 -7699 -7741 -7756 7781 -7821 7868"/>
    </vehicle>
    <vehicle id="28800_59" depart="28853.18">
        <route edges="14068226 8557 -30025326 -9278277 -9278266 -8538 -30119928 -30119927"/>
    </vehicle>
    <vehicle id="28800_60" depart="28853.52">
        <route edges="30106852 -30106847 30106850 30106851 30106845 30128879 30096315 30096317 30096327 -30096312 -7951"/>
    </vehicle>
    <vehicle id="28800_61" depart="28853.74">
        <route edges="-7985 7985 10706173 2302332 2302312 2302307 7809 7748 7695 8593971 20039582 20039583 -8593989 -10663349 -10663385 -10663339 -8608502"/>
    </vehicle>
    <vehicle id="28800_62" depart="28854.57">
        <route edges="7695 8593971 20039582 20039583 -8593989 -20039591 20039591"/>
    </vehicle>
    <vehicle id="28800_63" depart="28856.29">
        <route edges="-20062227 10663349 -20039591 -7646 -7662 -7707 -7719 -7761 7808"/>
    </vehicle>
    <vehicle id="28800_64" depart="28858.04">
        <route edges="-20039588 -20039582 -8593971 -7695 -7748 -7809 -2302307 -2302312 -2302332 -7968 -14068268 20039830"/>
    </vehicle>
    <vehicle id="28800_65" depart="28858.22">
        <route edges="-20062227 -10663385 -10663339 -8608502 -30017549 30017549"/>
    </vehicle>
    <vehicle id="28800_66" depart="28860.65">
        <route edges="8809 8810 -8734 30119927 30119928 8538 9278266 9278277 8571266 8593793 8203 8163 8143 8083 2302411 7985 10706173 2302332 -7915 -7888 -14067872"/>
    </vehicle>
    <vehicle id="28800_67" depart="28861.51">
        <route edges="-20042487 -14072116 -14072115 -8540 -8539 -8515 -8488 -8463 -8433 -8411 -11129688 8593793 8203 -8162 -8144 -8125 -8128 -30106845 30106845 8128"/>
    </vehicle>
    <vehicle id="28800_68" depart="28861.65">
        <route edges="-7873 -7857 -30096310 -30096338 -30096337 -30096312 -7951 7934 7749 -7700"/>
    </vehicle>
    <vehicle id="28800_69" depart="28862.13">
        <route edges="30106852 -30106847 30106850 30106851 30106845 30128879 30096315 30096317 30096327 -30096312 -7951"/>
    </vehicle>
    <vehicle id="28800_70" depart="28865.40">
        <route edges="14068267 14068268 7968 2302332 -7915 -7888 -7873 -7857 -30096310 -30096338 -30096337 -30096312 -7951 7934"/>
    </vehicle>
    <vehicle id="28800_71" depart="28866.82">
        <route edges="-8830 8830 14068232 14068233 8734"/>
    </vehicle>
    <vehicle id="28800_72" depart="28868.75">
        <route edges="2302312 -2302312 -2302332 -10706173 -7985 -2302411 -8083 -8143 -8163 -8203 -8593793 11129688 8411 8433 8463 -8537 -20042466 -20042465 -8662 -8847 8870 8874"/>
    </vehicle>
    <vehicle id="28800_73" depart="28869.37">
        <route edges="-14068439 -14068277 -8582 -10663662 -10663629 -8772 30118219 30118220 8803 8829 8830 8809 -8809"/>
    </vehicle>
    <vehicle id="28800_74" depart="28869.85">
        <route edges="8064 -8064 -8096 -8128 30128879 30096306 -30096357"/>
    </vehicle>
    <vehicle id="28800_75" depart="28873.99">
        <route edges="10663339 10663385 20062227 -20062227 -10663385 -10663339 -8608502 -8608523 -8608491 -7506 7506"/>
    </vehicle>
    <vehicle id="28800_76" depart="28874.44">
        <route edges="-9278266 9278266 9278277 8571266 11129688 8411 8433 8463 11129639 -11130126"/>
    </vehicle>
    <vehicle id="28800_77" depart="28875.95">
        <route edges="-9278266 -8538 -30119928 -30119927 8734 8735 8740 -8821 8846 8870 8874 1140225 -1140225 -8874"/>
    </vehicle>
    <vehicle id="28800_78" depart="28876.81">
        <route edges="-8571266 8571266 8593793 8203 8163 8143 8083 2302411 7985 10706173 2302332 2302312 2302307 7809 7748 7695 8593971 20039582 20039583 -8593989 -10663349 -10663385 -10663339 -8608502 -30017549"/>
    </vehicle>
    <vehicle id="28800_79" depart="28877.78">
        <route edges="-30119930 30119928 8538 9278266 9278277 8571266 11129688 8411 8433 8463 8488 8515 8539 8540 14072115 14072116 20042487 20042488 9781127 9781088 9781140 8065"/>
    </vehicle>
    <vehicle id="28800_80" depart="28878.46">
        <route edges="14067367 14067368 14067366 -8194 -8198 -11129896 -8219"/>
    </vehicle>
    <vehicle id="28800_81" depart="28879.38">
        <route edges="11714735 -11714735 -11714736 -8265 -11130126 8241 -8196 -8163 -8162 -8144 -8125 -8128 -30106845 -30106844 -8194 -8198 -11129896 -8219 -14067387"/>
    </vehicle>
    <vehicle id="28800_82" depart="28879.96">
        <route edges="-30066334 30066334 30066335 -8608502 -8608523 -8608491 -7506 -30017572"/>
    </vehicle>
    <vehicle id="28800_83" depart="28880.83">
        <route edges="-20039583 -20039582 -8593971 -7695 -7748 -7809 -2302307 -2302312 -2302332 -7968 -14068268 -14068267 -8026 -14067926 14068521"/>
    </vehicle>
    <vehicle id="28800_84" depart="28883.06">
        <route edges="2302312 2302307 7809 7748 7695 8593971 20039582 20039583 10663483 20141745 20141746 8677495 8649755 30134812"/>
    </vehicle>
    <vehicle id="28800_85" depart="28883.73">
        <route edges="-10663483 -20039583 -20039582 -8593971 -7695 -7748 -7809 -2302307 -2302312 -2302332 -10706173 -7985 -2302411 -8083 -8143 -8163 -8203 -8593793 -8571266 -9278277 -9278266 -8538 -30119928 -30119927 8734 8735 8715"/>
    </vehicle>
    <vehicle id="28800_86" depart="28884.07">
        <route edges="11129896 -14067476 -14067478 -14067477 -14068449 -14068448 8558 14068240 14068241 -10663662 -10663629 -8705"/>
    </vehicle>
    <vehicle id="28800_87" depart="28884.31">
        <route edges="-30119934 -30119930 30119928 8538 9278266 9278277 8571266 11129688 8411 8433 8463 8488 8515 8539 -8612"/>
    </vehicle>
    <vehicle id="28800_88" depart="28884.63">
        <route edges="30017549 -8608523 -8608491 8608491"/>
    </vehicle>
    <vehicle id="28800_89" depart="28884.74">
        <route edges="-2302307 -2302312 -2302332 -10706173 -7985 -2302411 -8083 -8143 -8163 -8203 -8593793 -8571266 -9278277 -9278266 -8538 -30119928 -30119927 8734 8735 8740"/>
    </vehicle>
    <vehicle id="28800_90" depart="28887.81">
        <route edges="-14068423 -14067871 8064 14067925 14067926 8026 14068267 14068268 7968 2302332 2302312 2302307 7809 7748 7695 8593971 20039582 20039583 -8593989 -10663349 -10663385 -10663339 -30066335 30075081"/>
    </vehicle>
    <vehicle id="28800_91" depart="28888.99">
        <route edges="30106850 30106851 30106845 8128 8125"/>
    </vehicle>
    <vehicle id="28800_92" depart="28889.37">
        <route edges="8433 8463 -8463 -8433 -8411 -11129688 8593793 8203 8163 8143 8083 2302411 7985 10706173 2302332 2302312 -2302312"/>
    </vehicle>
    <vehicle id="28800_93" depart="28889.88">
        <route edges="10663483 -10663483 -20039583 -20039582 -8593971 -7695 -7748 -7809 -2302307 -2302312 -2302332 -10706173 -7985 -2302411 -8083 -8143 -8163 -8203 -8593793 -8571266 -9278277 -9278266 -8538 -30119928 -30119927 8734 -8734"/>
    </vehicle>
    <vehicle id="28800_94" depart="28890.85">
        <route edges="7873 -7873 -7857 -30096310 -30096338 -30096337 -30096312 -7951 7934 7749 7701 7617 7628 7629 30066334 30066335 -8608502"/>
    </vehicle>
    <vehicle id="28800_95" depart="28891.13">
        <route edges="7646 -7646 7694 -7748 -7809 -2302307 -2302312 -2302332 -10706173 -7985 -2302411 -8083 -8143 -8163 -8203 -8593793 -8571266 -9278277 -9278266 -8538 -30119928 -30119927 8734 8735 8715 -20042474"/>
    </vehicle>
    <vehicle id="28800_96" depart="28892.47">
        <route edges="8593793 -8593793 -8571266 -30017565 -30017564 -8426 -8406 -8414 -8566857"/>
    </vehicle>
    <vehicle id="28800_97" depart="28893.72">
        <route edges="-8432383 -20091988 -20091987 -9741259 -30093309 -30093308 -8065 -9781140 -9781088 -9781127 -20042488 -20042487 -14072116 -14072115 -8540 -8539 -8515 -8488 -8463 -8433 8412"/>
    </vehicle>
    <vehicle id="28800_98" depart="28893.96">
        <route edges="-8227 -8593793 11129688 8411 8433 8463 8488 8515 8539 8540 14072115 14072116 20042487"/>
    </vehicle>
    <vehicle id="28800_99" depart="28894.33">
        <route edges="30119944 -20042473 -14068286 8538 9278266 9278277 8571266 11129688 8411 8433 8463 8488 8515 8539 8540 14072115 14072116 20042487"/>
    </vehicle>
    <vehicle id="28800_100" depart="28894.73">
        <route edges="-8432383 -20091988 -20091987 -9741259 -30093306 -30093316 30093320 -30093320"/>
    </vehicle>
    <vehicle id="28800_101" depart="28895.71">
        <route edges="7727 7628 -7636 7661 -7707 7747 -7809 -2302307 -2302312 -2302332 -10706173 -7985 -2302411 -8083 8083"/>
    </vehicle>
    <vehicle id="28800_102" depart="28898.00">
        <route edges="-20062227 -10663385 -10663339 -30066335 -30066334 -7629 7629"/>
    </vehicle>
    <vehicle id="28800_103" depart="28899.67">
        <route edges="30017549 -8608523 8608523"/>
    </vehicle>
    <vehicle id="28800_104" depart="28899.88">
        <route edges="-8538 8538 9278266 9278277 8571266 11129688 8411 8433 8463 11129639 -11130126"/>
    </vehicle>
    <vehicle id="28800_105" depart="28900.74">
        <route edges="-30106852 30106851 30106845 30128879 30096315 30096317 -30096317"/>
    </vehicle>
    <vehicle id="28800_106" depart="28901.64">
        <route edges="-20062227 10663349 -20039591 -7646 -7662 -7707 -7719 -7761 -7782 -7821 -7874 -7873"/>
    </vehicle>
    <vehicle id="28800_107" depart="28901.65">
        <route edges="-30106847 30106850 30106851 30106845 8128 8096 8064 14067925 14067926 8026 14068267 14068268 7968 7932 7889 7871 7867 14067894 14067895 -14067895"/>
    </vehicle>
    <vehicle id="28800_108" depart="28904.16">
        <route edges="-8608523 8608523 8608502 10663339 10663385 20062227 -20062227 -10663385 -10663339"/>
    </vehicle>
    <vehicle id="28800_109" depart="28904.42">
        <route edges="7629 30066334 30066335 -8608502 -8608523 -8608491 -7506"/>
    </vehicle>
    <vehicle id="28800_110" depart="28905.88">
        <route edges="-8219 8219 11129896 8198 8194 30106844 30106845 30128879 30096315 30096317 30096327 -30096312 -7951 7934 7749 -7700"/>
    </vehicle>
    <vehicle id="28800_111" depart="28907.96">
        <route edges="8194 30106844 30106845 8128 8096 8064 14067925 14067926 8026 14068267 14068268 7968 2302332 2302312 2302307 -7808 7761 -7718 -7741 -7740"/>
    </vehicle>
    <vehicle id="28800_112" depart="28908.22">
        <route edges="-14068267 14068267 14068268 7968 2302332 2302312 2302307"/>
    </vehicle>
    <vehicle id="28800_113" depart="28910.14">
        <route edges="30106850 30106851 30106845 8128 8096 8064 14067925 14067926 8026 14068267 14068268 7968 2302332 2302312 2302307 -7808 7761"/>
    </vehicle>
    <vehicle id="28800_114" depart="28910.19">
        <route edges="-9741259 -30093306 -30093305 -30093302 7904 -7797 -10663577 -30105850 -30105849 -7867 -7871 -7889 -7932 -7968 -14068268 -14068267"/>
    </vehicle>
    <vehicle id="28800_115" depart="28912.24">
        <route edges="20042497 20042498 -7888 -7873 -7857 -30096310 -30096338 -30096337 -30096312 -7951 7934 7749 -7700"/>
    </vehicle>
    <vehicle id="28800_116" depart="28913.15">
        <route edges="10663526 8219 11129896 -14067476 14067720 14067368 14067608"/>
    </vehicle>
    <vehicle id="28800_117" depart="28913.63">
        <route edges="-20062227 10663349 8593989 10663483 20141745 20141746 -8571067 -8570974 -8570852 -14067895 -14067894 30105849 30105850 30105852 -30105859"/>
    </vehicle>
    <vehicle id="28800_118" depart="28914.71">
        <route edges="-20028247 9781127 9781088 9781140 8065 30093308 30093309 -30093306 -30093305 -30093324 -30093326 -30093358"/>
    </vehicle>
    <vehicle id="28800_119" depart="28915.19">
        <route edges="14068521 -14068423 -14067871 8064 14067925 14067926 8026 14068267 14068268 7968 2302332 2302312 2302307 7809 7748 7695 8593971 20039582 20039583 -8593989 -10663349 -10663385 -10663339 -8608502 -8608523 -8608491 -7506 -10663266"/>
    </vehicle>
    <vehicle id="28800_120" depart="28915.96">
        <route edges="8536 -8536 8570813 8463 11129639 -11130126 8241 8197 8134 8071 8020 7946 7920 14067894 14067895 8570852 8570974 8571067 -20141746 -20141745 -10663483 -20039583"/>
    </vehicle>
    <vehicle id="28800_121" depart="28916.64">
        <route edges="-14072116 14072116 20042487 20042488 9781127 9781088 9781140 8065 30093308 30093309 9741259 20091987 20091988 -30134812 -8649755 -8677495 -20141746 -20141745 -10663483 -8593989 -10663349 -10663385 -10663339 -8608502 -30017549"/>
    </vehicle>
    <vehicle id="28800_122" depart="28916.84">
        <route edges="-30119944 30119944 -20042473 -14068286 8538 9278266 9278277 8571266 11129688 8411 8412 -8246"/>
    </vehicle>
    <vehicle id="28800_123" depart="28916.94">
        <route edges="-8426 8407 -8125 -8128 30128879 30096315 30096317 30096327 -30096312 -7951 7934 7749 -7700"/>
    </vehicle>
    <vehicle id="28800_124" depart="28917.04">
        <route edges="7748 -7748 -7809 -2302307 -2302312 -2302332 -10706173 -7985 -2302411 -8083 -8143 -8163 -8203 -8593793 -8571266 -9278277 -9278266 -8538 -30119928 -30119927 -14068233 -14068232 -8830 -8829 -8920 -9212139"/>
    </vehicle>
    <vehicle id="28800_125" depart="28918.21">
        <route edges="8515 -8515 -8488 -8463 -8433 -8411 -11129688 8593793 8203 -8162 -8144 -8125 -8128 30128879 30096315 30096317"/>
    </vehicle>
    <vehicle id="28800_126" depart="28918.37">
        <route edges="-30106850 30106850 30106851 30106845 8128 8125 -8407 8407"/>
    </vehicle>
    <vehicle id="28800_127" depart="28918.52">
        <route edges="-8516 -8515 -8488 -8463 -8433 -8411 -11129688 8593793 8203 -8162 -8144 -8125 -8128 -30106845 -30106851"/>
    </vehicle>
    <vehicle id="28800_128" depart="28919.14">
        <route edges="14068268 7968 7932 7889 7871 7867 30105849 30105850 10663577 7797 30011644 30011645 -8649755 7652"/>
    </vehicle>
    <vehicle id="28800_129" depart="28922.21">
        <route edges="10663526 -14067387 -14067386 8364 8383"/>
    </vehicle>
    <vehicle id="28800_130" depart="28923.30">
        <route edges="-8432383 -20091988 -20091987 -9741259 -30093309 -30093308 -8065 -9781140 -9796562"/>
    </vehicle>
    <vehicle id="28800_131" depart="28923.77">
        <route edges="-20039577 20039568 -14067895 -14067894 30105849 30105850 10663577 -7883 7903 30093302 30093305 30093306 -30093309 -30093308 -8065 -9781140 -9781088 -9781127 -20042488 -20042487 -14072116 -14072115 14072115"/>
    </vehicle>
    <vehicle id="28800_132" depart="28924.04">
        <route edges="7596 -7646 7694 -7748 -7809 -2302307 -2302312 -2302332 -10706173 -7985 -2302411 -8083 -8143 -8163 -8203 -8593793 -8571266 -9278277 -9278266 -8538 -30119928 -30119927 8734 -8734"/>
    </vehicle>
    <vehicle id="28800_133" depart="28924.98">
        <route edges="20141746 -8571067 -8570974 -8570852 -14067895 -14067894 -7867 -7871 -7889 -7932 -7968 -14068268 -14068267 -8026 -14067926 -14067925 -8064 -8096 -8128 -30106845 -30106844 -8194 -8198 -11129896"/>
    </vehicle>
    <vehicle id="28800_134" depart="28925.20">
        <route edges="-30119943 -30119938 -30119934 -30119930 30119928 8538 9278266 9278277 8571266 11129688 8411 8433 8463 8488 8515 8539 8540 14072115 14072116 20042487 20042488 9781127 9781088 9781140 8065 30093308 30093309 -30093306"/>
    </vehicle>
    <vehicle id="28800_135" depart="28926.86">
        <route edges="9270628 -8804 -8803 -30118220"/>
    </vehicle>
    <vehicle id="28800_136" depart="28930.47">
        <route edges="30017549 -8608523 -8608491 8608491"/>
    </vehicle>
    <vehicle id="28800_137" depart="28930.68">
        <route edges="30096354 30096357 30096307 7873 -14067872 -14067871 8064 14067925 14067926 8026 14068267 14068268 7968 2302332 2302312 2302307 7809 20039567 20039577"/>
    </vehicle>
    <vehicle id="28800_138" depart="28932.36">
        <route edges="-20062227 -10663385 -10663339 -30066335 -30066334 -7629 -7636 -7699 -7741 -7756 -7858 -7857"/>
    </vehicle>
    <vehicle id="28800_139" depart="28933.19">
        <route edges="-8566075 -11129683 8685 8539 8540 14072115 14072116 20042487 20042488 9781127 9781088 9781140 8065 30093308 30093309 -30093306 -30093305 -30093324 -30093326"/>
    </vehicle>
    <vehicle id="28800_140" depart="28934.10">
        <route edges="-7951 7934 7749 -7700"/>
    </vehicle>
    <vehicle id="28800_141" depart="28935.47">
        <route edges="8571067 -20141746 -20141745 -10663483 -8593989 -10663349 -10663385 -10663339 -8608502 -30017549 30017549"/>
    </vehicle>
    <vehicle id="28800_142" depart="28936.43">
        <route edges="7809 -7809 -2302307 -2302312 -2302332 -7968 -14068268 -14068267 -8026 -14067926 -14067925 -8064 -8096 -8128 -30106845 -30106844 -8194 -8198 -11129896 -8219 -10663526"/>
    </vehicle>
    <vehicle id="28800_143" depart="28937.10">
        <route edges="8740 -8740 8715 -20042474 -20042473 -14068286 -30119928 -30119927 8734 8735"/>
    </vehicle>
    <vehicle id="28800_144" depart="28937.10">
        <route edges="7747 -7809 -2302307 -2302312 -2302332 -7968 -14068268 20039830"/>
    </vehicle>
    <vehicle id="28800_145" depart="28938.89">
        <route edges="30011645 -8649755 -8677495 -8571067 -8570974 -8570852 -14067895 -14067894 -7867 -7871 -7889 -7932 -7968 -14068268 -14068267 -8026 -14067926 14068521"/>
    </vehicle>
    <vehicle id="28800_146" depart="28940.74">
        <route edges="-30096354 -30096325 -30096315 30096306 30096307 7873 -14067872 -14067871 8064 14067925 14067926 8026 14068267 14068268 7968 7932 7889 7871 7867 30105849 30105850 10663577 7797 30011644 30011645 -8649755 7652"/>
    </vehicle>
    <vehicle id="28800_147" depart="28942.76">