<?xml version="1.0" encoding="UTF-8"?>

<!-- generated on 2024-08-21 18:22:37.535968 by routeSampler.py UNKNOWN
<configuration>
    <route-files value="data/processed/dorset_park/initial_route_file.rou.xml"/>
    <turn-files value="data/processed/dorset_park/turning_movements.xml"/>
    <output-file value="data/sumo_networks/dorset_park/dorset_park_routes.rou.xml"/>
    <begin value="28800"/>
    <end value="34200"/>
    <total-count value="6688"/>
</configuration>
-->

<routes xmlns:xsi="http://www.w3.org/2001/XMLSchema-instance" xsi:noNamespaceSchemaLocation="http://sumo.dlr.de/xsd/routes_file.xsd">
<!-- begin="28800.0" end="29700.0" -->
    <vehicle id="28800_0" depart="28800.12">
        <route edges="110427 6408248 7017636 110141 4605094 6436449 110025 7171791 109980 7171803 109944 109940 109936 109896 13232758 5087274 109688 30122712 30122713 -30122713"/>
    </vehicle>
    <vehicle id="28800_1" depart="28801.22">
        <route edges="109975 -6427469 -6427468 -6427464 -6427460 4605094 6436449 110025 7171791 109980 7171803 109944 109940 109936 109896 13232758 -110000 -110083"/>
    </vehicle>
    <vehicle id="28800_2" depart="28801.41">
        <route edges="6332605 9638338 14020766 20110483 14228405 -14228398 -107978 -11034280 -7204415 -2809289 -5066262 -6436415 -6436414 -6436410 -3011699 -109489 -3011683 -5066211 -7179817 -7179805 -110026 -110101 -14605393 -14605392 -110443"/>
    </vehicle>
    <vehicle id="28800_3" depart="28802.90">
        <route edges="-108454 108454 108146 108095 107935 107891 107678 107615 107564 107499 107494 -7204470 107831"/>
    </vehicle>
    <vehicle id="28800_4" depart="28803.44">
        <route edges="30001033 110609 110565 110519 110497 110366 110296 14605392 14605393 110101 110026 -109853 -109877 -109905 -109925"/>
    </vehicle>
    <vehicle id="28800_5" depart="28803.93">
        <route edges="30013725 108622 -108622 -30013725 -108738 -14663886 -13974855 -6535415 20054774 20054775 14070145 108454 108146 108095 107935 107890 107802 20105539 20105581"/>
    </vehicle>
    <vehicle id="28800_6" depart="28804.96">
        <route edges="-2798981 -7204415 -2809289 108622 108580 6541761 108534 108519 108515 30083021 30083022 30109374"/>
    </vehicle>
    <vehicle id="28800_7" depart="28806.90">
        <route edges="30122712 30122713 -30122713 -30122712 -109688 -5087274 -13232758 -109896 -109936 -109940 -109944 -7171803 -109980 -7171791 -110025 110026 7179805 7179817 5066211 3011683 109489 -30123087 -109369 -109320 -109260 -109188 109188"/>
    </vehicle>
    <vehicle id="28800_8" depart="28807.06">
        <route edges="-110026 -6436449 -4605094 6427460 6427464 6427468 6427469 109951 109782 109759"/>
    </vehicle>
    <vehicle id="28800_9" depart="28807.98">
        <route edges="108956 -108956 4684710 6535415 13974855 14663886 108738 30013725 2809289 7204415 6332605 9638338 14020766 14020767"/>
    </vehicle>
    <vehicle id="28800_10" depart="28808.13">
        <route edges="-110436 -110449 110450 14668247 4605077 20040316 20040317 -110339 110338 110296 14605392 14605393 110101 110025 7171791 109980 7171803 109944 109940 109936 109896 13232758 5087274 109688 30122712 30122713 9910076 109360 108915 -30101478 30101498 30101513 30101515"/>
    </vehicle>
    <vehicle id="28800_11" depart="28808.93">
        <route edges="-110180 6408248 7017636 110141 -110141 -7017636 -6408248 110180 5353566 109836 109627 109545 5353633 109295 109276 12691191 4684711 4684714 108988 -108988"/>
    </vehicle>
    <vehicle id="28800_12" depart="28809.12">
        <route edges="108899 -4684710 -108988 -4684714 -4684711 -12691191 -109276 -109295 -5353633 -109545 -109627 -109836 -5353566 -110180 -110427 -110444 -110496 -110614 110613 110601 -110601"/>
    </vehicle>
    <vehicle id="28800_13" depart="28810.54">
        <route edges="-109951 -6427469 -6427468 -6427464 -6427460 4605094 6436449 -110101"/>
    </vehicle>
    <vehicle id="28800_14" depart="28810.89">
        <route edges="109931 -109931 -109950 -109975 109976 109867 -109816 -109835 109836 109627 109545 5353633 109295 109276 12691191 -5353610"/>
    </vehicle>
    <vehicle id="28800_15" depart="28811.16">
        <route edges="108498 108466 108447 108376 -2798981 11034280 107978 14228398 14228399 20105572 20105568 107571 107499 107494 107431 -107431"/>
    </vehicle>
    <vehicle id="28800_16" depart="28811.35">
        <route edges="-110783 -110819 -30087939 30087939 110819 110783 110728 110614 110496 110444 110427 6408248 7017636 110141 4605094 6436449 110025 7171791 109980 7171803 109944 109940 109936 109896 13232758 -110000 110021"/>
    </vehicle>
    <vehicle id="28800_17" depart="28812.88">
        <route edges="30106265 108534 108519 108515 30083021 30083022 30109374 30109375 30109380 30109381 30109383 30109384 30101483 30101484 30101481 30101478 -108915 -109360 -9910076 -30122713 -30122712 -109688 -5087274 7155256"/>
    </vehicle>
    <vehicle id="28800_18" depart="28813.22">
        <route edges="-110025 -110101 110101 110025 7171791 109980 7171803 109944 109940 109937"/>
    </vehicle>
    <vehicle id="28800_19" depart="28815.25">
        <route edges="-14020767 20110483 14228405 14228399 20105572 20105568 107571 107499 107494 107431"/>
    </vehicle>
    <vehicle id="28800_20" depart="28815.80">
        <route edges="5353610 -12691191 -109276 -109295 -5353633 109387 -109520 109520"/>
    </vehicle>
    <vehicle id="28800_21" depart="28816.21">
        <route edges="109758 -109758 -109782 -109803 -109816 -109835 -5353566 -110180 -3497264"/>
    </vehicle>
    <vehicle id="28800_22" depart="28817.20">
        <route edges="14020767 108086 108009 -7204482 7204482 -108009 -108086 -14020767 -14020766 -9638338 -6332605 11034280 108026 107996"/>
    </vehicle>
    <vehicle id="28800_23" depart="28817.39">
        <route edges="-108388 7204446 108103 6541762 7204482 7204470"/>
    </vehicle>
    <vehicle id="28800_24" depart="28819.64">
        <route edges="20040333 20040334 110101 110025 7171791 109980 7171803 109944 109940 109936 109896 13232758 5087274 30077086"/>
    </vehicle>
    <vehicle id="28800_25" depart="28821.02">
        <route edges="-109867 109867 109803 109782 109759 109705 9909946 -109620 109585 109576 5066211 3011683 109489 3011699 6436410 6436414 6436415 5066262 2809289 7204415 2798981"/>
    </vehicle>
    <vehicle id="28800_26" depart="28821.24">
        <route edges="-14020767 20110483 14228405 14228399 107784 107689 107679 107670 107547 107469"/>
    </vehicle>
    <vehicle id="28800_27" depart="28821.77">
        <route edges="-107831 -108009 -108086 -14020767 20110483 14228405 14228399 107784 107688"/>
    </vehicle>
    <vehicle id="28800_28" depart="28822.90">
        <route edges="-14020767 -14020766 -9638338 -6332605 11034280"/>
    </vehicle>
    <vehicle id="28800_29" depart="28823.58">
        <route edges="109363 -109320 -109260 -109188 -109170 -109108 -109062 -108956 -108988 -4684714 -4684711 -5353610"/>
    </vehicle>
    <vehicle id="28800_30" depart="28824.45">
        <route edges="30108020 109011 108943 108863 108787 30013725 2809289 7204415 11034280 107978 14228398 14228399 -14228399 -14228398"/>
    </vehicle>
    <vehicle id="28800_31" depart="28824.78">
        <route edges="110629 -110569 -110513 110514 -110449 -110495 110496 110444 110427 110180 5353566 109836 109627 109545 5353633 109295 109276 12691191 -5353610"/>
    </vehicle>
    <vehicle id="28800_32" depart="28827.86">
        <route edges="-30013725 -108738 -14663886 -13974855 -6535415 -4684710 -108988 -4684714 -4684711 -12691191 -109276 -109295 -5353633 -109545 -109627 -109836 -5353566 -110180 6408248 7017636"/>
    </vehicle>
    <vehicle id="28800_33" depart="28829.87">
        <route edges="-108146 108146 108095 107935 107891 107678 107615 107564 107499 107494 -7204470 -7204482 -6541762 -108103 -7204446 108388"/>
    </vehicle>
    <vehicle id="28800_34" depart="28830.25">
        <route edges="-5047774 20040333 20040334 110101 110026 7179805 7179817 5066211 3011683 109489 -30123087 -109369 -109320 -109260 -109188 -109170 -109108 -109062 -108956 4684710 -108899"/>
    </vehicle>
    <vehicle id="28800_35" depart="28831.20">
        <route edges="109803 -109951 -6427469 -6427468 -6427464 -6427460 4605094 6436449 110025 7171791 109980 7171803 109944 109940 109954 -30100022 -30100021 -110021 110000 -13232758"/>
    </vehicle>
    <vehicle id="28800_36" depart="28833.05">
        <route edges="6332588 6332578 6332579 -108026 -11034280 -7204415 -2809289 -5066262 -6436415 -6436414 -6436410 -3011699 -109489 -3011683 -5066211 -7179817 -7179805 -110026 -6436449 -4605094 -110141 -7017636"/>
    </vehicle>
    <vehicle id="28800_37" depart="28835.10">
        <route edges="109896 13232758 5087274 -5087274 -13232758 -109896 -109936 -109940 -109944 -7171803 -109980 -7171791 -110025 -6436449 -4605094 -110141 -7017636 -6408248 110180 5353566 109836 -109836"/>
    </vehicle>
    <vehicle id="28800_38" depart="28835.51">
        <route edges="107802 20105539 20105581 20110472 -14228398 -107978 -11034280 2798981 -108376 -108447 -108466 -108498 -108550"/>
    </vehicle>
    <vehicle id="28800_39" depart="28837.82">
        <route edges="110450 -110395 -110426 110427 110180 5353566 109836 109627 109545 5353633 109295 109276 12691191 4684711"/>
    </vehicle>
    <vehicle id="28800_40" depart="28839.37">
        <route edges="108899 -4684710 108956 109062 109108 109170 109188 109260 109320 109369 30123087 -109489 -3011683 -5066211 -7179817 -7179805 -110026 -110101 -14605393 -14605392 -110296 110296 14605392"/>
    </vehicle>
    <vehicle id="28800_41" depart="28839.51">
        <route edges="3497264 110180 110110 110094 110079 109975 -6427469"/>
    </vehicle>
    <vehicle id="28800_42" depart="28841.08">
        <route edges="108491 108146 108095 107935 107890 107802 20105539 20105581 20110472 -14228398 -107978 -11034280 2798981 -2798981"/>
    </vehicle>
    <vehicle id="28800_43" depart="28842.17">
        <route edges="6332605 9638338 14020766 20110483 14228405 -14228398 -107978 -11034280 -7204415 -2809289 108622 -108622 2809289"/>
    </vehicle>
    <vehicle id="28800_44" depart="28843.33">
        <route edges="108899 -4684710 -108988 -4684714 -4684711 -12691191 -109276 -109295 -5353633 -109545 -109627 -109836 109835 109816 109803 109782 -109849 109848 -109906 -109931"/>
    </vehicle>
    <vehicle id="28800_45" depart="28843.37">
        <route edges="-20050929 -20050928 -20050897 -14070218 -14070155 14663886 108738 30013725 108622 108580 6541761 108534 108519 108515 30083021 30083022 30109374 30109375 30109380 30109381 30109383 30109384 30101483 30101484 30101495 30101505 30101507 -30101507"/>
    </vehicle>
    <vehicle id="28800_46" depart="28844.98">
        <route edges="108820 108738 30013725 -5066262 -6436415 -6436414 -6436410 11714723"/>
    </vehicle>
    <vehicle id="28800_47" depart="28845.20">
        <route edges="-30122712 -109688 -5087274 -13232758 -109896 -109936 -109940 -109944 -7171803 -109980 -7171791 -110025 110026 7179805 7179817 5066211 3011683 109489 -30123087 -109369 -109320 -109260 -109217"/>
    </vehicle>
    <vehicle id="28800_48" depart="28846.02">
        <route edges="20040334 110101 -6436449 -4605094 -110141 -7017636 -6408248 110180 5353566 109836 109626"/>
    </vehicle>
    <vehicle id="28800_49" depart="28846.76">
        <route edges="-109585 109585 109576 -7179817 -7179805 -110026 -6436449 -4605094 -110141 -7017636"/>
    </vehicle>
    <vehicle id="28800_50" depart="28847.03">
        <route edges="-30100021 -110021 110000 -13232758 -109896 -109936 -109940 -109944 -7171803 -109980 14605474 14605475"/>
    </vehicle>
    <vehicle id="28800_51" depart="28847.12">
        <route edges="30108028 -30108028 -30108026 -30108023 -30108022 -109170 -109108 -109062 -108956 4684710 -108899 108899 -4684710"/>
    </vehicle>
    <vehicle id="28800_52" depart="28848.90">
        <route edges="2809289 7204415 2798981 -108376 -108447 -108466 -108498 -108550 -108561 -108601 -30013726 -108787 -108863 -4309298 -4309325 -109012 -30108020 -30108023 -30108022 109188 -109217 -109245 -109307 -109315 -109497 109497"/>
    </vehicle>
    <vehicle id="28800_53" depart="28851.35">
        <route edges="5353610 -12691191 -109276 -109295 -7171584 109315 109375 109427 109455 109510 109550 109586 109620 109703 -109722 -109878"/>
    </vehicle>
    <vehicle id="28800_54" depart="28851.88">
        <route edges="-110420 110421 110338 110296 14605392 14605393 110101 110025 7171791 109980"/>
    </vehicle>
    <vehicle id="28800_55" depart="28852.06">
        <route edges="-14070199 14070199 14070200 -20054775 -20054774 -4684710 -108988 -4684714 -4684711 -12691191 -109276 -109295 -5353633 -109545 -109627 -109836 -5353566 -110180 -110427 -110444 -110496 110496"/>
    </vehicle>
    <vehicle id="28800_56" depart="28852.28">
        <route edges="-107385 -107403 -107431 -7204470 -108009 -108086 -14020767 -14020766 -9638338"/>
    </vehicle>
    <vehicle id="28800_57" depart="28852.70">
        <route edges="20054775 -20054775 -20054774 -4684710 -108988 -4684714 -4684711 -5353610"/>
    </vehicle>
    <vehicle id="28800_58" depart="28853.57">
        <route edges="-6436410 -3011699 -109489 -3011683 -5066211 -7179817 -7179805 -110026 110025 7171791 109980 7171803 109944 109940 109936 109896 13232758 -110000 110021 30100021"/>
    </vehicle>
    <vehicle id="28800_59" depart="28855.98">
        <route edges="14020766 14020767 108086 108009 -7204482 -6541762 -108103 -7204446 -108537 108537 7204446"/>
    </vehicle>
    <vehicle id="28800_60" depart="28856.05">
        <route edges="110444 110427 110180 5353566 109836 109627 109545 5353633 109295 109276 12691191 4684711 4684714 108988 4684710 -108899"/>
    </vehicle>
    <vehicle id="28800_61" depart="28856.21">
        <route edges="110421 110338 110296 14605392 14605393 110101 110025 7171791 109980 7171803 109944 109940 109936 109896 13232758 5087274 109688 30122712 30122713 9910076 109360 108915 -30101478 -30101481 30101495 30101496"/>
    </vehicle>
    <vehicle id="28800_62" depart="28856.39">
        <route edges="108490 108454 108146 108095 107935 107891 107678 107615 107564 107499 107494 -7204470 107831"/>
    </vehicle>
    <vehicle id="28800_63" depart="28856.42">
        <route edges="5353610 4684711 4684714 108988 4684710 6535415 13974855 14663886 -14663886"/>
    </vehicle>
    <vehicle id="28800_64" depart="28857.28">
        <route edges="-108491 108490 -14070145 -14070200 -14070199 -14070198 -20050929 -20050928 -20050897"/>
    </vehicle>
    <vehicle id="28800_65" depart="28858.37">
        <route edges="-2798981 -7204415 -2809289 -5066262 -6436415 -6436414 -6436410 -3011699 -109489 -3011683 -5066211 -7179817 -7179805 -110026 -6436449 -4605094 -110141 -7017636 -6408248 -110427"/>
    </vehicle>
    <vehicle id="28800_66" depart="28858.68">
        <route edges="107935 107890 107802 20105539 20105581 20110472 -14228398 -107978 -11034280 -7204415 -2809289 -30013725 -108738 -108820"/>
    </vehicle>
    <vehicle id="28800_67" depart="28858.83">
        <route edges="14070200 -20054775 -20054774 -4684710 -108988 -4684714 -4684711 -12691191 -109276 -109295 -5353633 109387 -109520 -109611"/>
    </vehicle>
    <vehicle id="28800_68" depart="28859.13">
        <route edges="-109848 -109932 -109950 -6427469 -6427468 -6427464 -6427460 -110141 -7017636 -6408248 -110427 -110444 -110496 110495 110449 -110514 110513 110569"/>
    </vehicle>
    <vehicle id="28800_69" depart="28859.41">
        <route edges="-109427 109427 109455 109510 109550 109577 109576 -7179817 -7179805 -110026 -6436449"/>
    </vehicle>
    <vehicle id="28800_70" depart="28859.80">
        <route edges="-110141 -7017636 -6408248 110180 5353566 109836 109627 109545 5353633 109295 109276 12691191 4684711 4684714 108988 4684710 20054774 20054775 14070145 108454"/>
    </vehicle>
    <vehicle id="28800_71" depart="28860.90">
        <route edges="30013726 108601 108561 108550 108498 108466 108447 108376 -2798981 6332605 9638338 14020766 20110483 14228405"/>
    </vehicle>
    <vehicle id="28800_72" depart="28862.06">
        <route edges="-30101478 30101478 -108915 -109360 -9910076 -30122713 -30122712 -109688 -5087274 -13232758 -109896 -109936 -109940 -109944 -7171803 -109980 -7171791 -110025 -6436449 -4605094 -110141 -7017636 -6408248 110180 110110 110094"/>
    </vehicle>
    <vehicle id="28800_73" depart="28862.68">
        <route edges="110426 -110426 110427 6408248 7017636 110141 4605094 6436449 110025 7171791 109980 7171803 109944 109940 109936 109896 13232758 5087274 109688 30122712 30122713 9910076 109360 108915 -30101478 -30101481 30101495 30101496 30101503"/>
    </vehicle>
    <vehicle id="28800_74" depart="28863.84">
        <route edges="14228399 -14228399 -14228398 -107978 -11034280 -7204415 -2809289 -30013725 -108738 -14663886 -13974855 -6535415 -108899"/>
    </vehicle>
    <vehicle id="28800_75" depart="28863.91">
        <route edges="30101506 -30101506 -30101505 -30101495 -30101484 -30101483 -30109384 -30109383 -30109381 -30109380 -30109375 -30109374 14258090 -108432 -108501 -108515 -108519 -108534 -6541761 -108580 -108622 2809289 7204415 11034280 107978 14228398 14228399 107784 107689 107679 107671"/>
    </vehicle>
    <vehicle id="28800_76" depart="28864.54">
        <route edges="-107656 -107671 -107679 -107689 -107784 -14228399 -14228398 -107978 -11034280 -7204415 -2809289 -30013725 -108738 -14663886 -13974855 -6535415 -4684710 4684710"/>
    </vehicle>
    <vehicle id="28800_77" depart="28864.60">
        <route edges="6541762 7204482 -108009 -108086 -14020767 20110483 14228405 14228399 20105572 20105568 107571 107499"/>
    </vehicle>
    <vehicle id="28800_78" depart="28865.08">
        <route edges="109951 109782 109759 109705 9909946 -109620 109585 109576 5066211 3011683 109489 3011699 6436410 6436414 6436415 5066262 108622 108580 6541761 108534 108519 108515 108501 108432 108429 -108537 108537 -108429"/>
    </vehicle>
    <vehicle id="28800_79" depart="28865.61">
        <route edges="-108454 108454 108146 108095 107935 107891 107678 107615 107564 107499 107494 -7204470 107831"/>
    </vehicle>
    <vehicle id="28800_80" depart="28865.77">
        <route edges="-108095 -108146 -108454 -14070145 -20054775 -20054774 -108899"/>
    </vehicle>
    <vehicle id="28800_81" depart="28868.04">
        <route edges="109519 -109519 109520 -109387 5353633 109295 109276 12691191 4684711 4684714 108988 4684710 -108899"/>
    </vehicle>
    <vehicle id="28800_82" depart="28868.62">
        <route edges="-108146 108146 108095 107935 107891 107678 107615 107564 107499 107494 -7204470 -7204482 -6541762 -108103 -7204446 108388"/>
    </vehicle>
    <vehicle id="28800_83" depart="28869.18">
        <route edges="-20040333 20040333 20040334 110101 110025 7171791 109980 7171803 109944 109940 109937"/>
    </vehicle>
    <vehicle id="28800_84" depart="28869.35">
        <route edges="-109320 -109260 -109188 -109170 -109108 -109062 -108956 4684710 6535415 13974855 14070155 14070218 20050897 20050928 20050929"/>
    </vehicle>
    <vehicle id="28800_85" depart="28869.88">
        <route edges="-110728 -110783 -110819 -30087939 30087939 110819 110783 110728 110614 110496 110444 110427 6408248 7017636 110141 4605094 6436449 110026 7179805 7179817 5066211 3011683 109489 3011699 6436410"/>
    </vehicle>
    <vehicle id="28800_86" depart="28871.07">
        <route edges="30101503 -30101506 -30101505 -30101495 30101481 30101478 -108915 -109360 -9910076 -30122713 -30122712 -109688 -5087274 -13232758 -109896 -109936 -109940 -109944 -7171803 -109980 -7171791 -110025 -110101 -14605393 -14605392 -110443"/>
    </vehicle>
    <vehicle id="28800_87" depart="28871.47">
        <route edges="109363 109369 30123087 -109489 -3011683 -5066211 -7179817 -7179805 -110026 110025 7171791 109980 7171803 109944 109940 109954 -30100022 -30100021 -110021"/>
    </vehicle>
    <vehicle id="28800_88" depart="28872.16">
        <route edges="-7171791 7171791 109980 7171803 109944 109940 109954 -30100022 -30100021 -110021 110000 -13232758"/>
    </vehicle>
    <vehicle id="28800_89" depart="28872.54">
        <route edges="-110420 110421 110338 110296 14605392 14605393 110101 110025 7171791 109980 7171803 109944 109940 109936 109896 13232758 5087274 109688"/>
    </vehicle>
    <vehicle id="28800_90" depart="28873.55">
        <route edges="-5087274 -13232758 -109896 -109936 -109940 -109944 -7171803 -109980 -7171791 -110025 110026 7179805 7179817 5066211 3011683 109489 -30123087 -109369 -109363 -109390 -109426"/>
    </vehicle>
    <vehicle id="28800_91" depart="28875.12">
        <route edges="-109062 -108956 4684710 -108899"/>
    </vehicle>
    <vehicle id="28800_92" depart="28878.38">
        <route edges="-30100021 -110021 110000 -13232758 -109896 -109936 109936"/>
    </vehicle>
    <vehicle id="28800_93" depart="28879.74">
        <route edges="108095 -108095 -108146 -108454 -14070145 -14070200"/>
    </vehicle>
    <vehicle id="28800_94" depart="28879.74">
        <route edges="6408248 7017636 110141 4605094 6436449 110026 7179805 7179817 5066211 3011683 109489 3011699 6436410 6436414 6436415 5066262 108622 108580 6541761 108534 108519 108515 30083021 30083022 30109374"/>
    </vehicle>
    <vehicle id="28800_95" depart="28880.36">
        <route edges="20105581 20110472 -14228398 -107978 -11034280 -7204415 -2809289 108622 30106258"/>
    </vehicle>
    <vehicle id="28800_96" depart="28883.69">
        <route edges="110191 110083 110000 -13232758 -109896 -109936 -109940 -109944 -7171803 -109980 -7171791 -110025 110026 7179805 7179817 -109576 -109577 -109550 -109510 -109455 -109427"/>
    </vehicle>
    <vehicle id="28800_97" depart="28884.47">
        <route edges="13232758 5087274 -5087274 -13232758 -109896 -109936 -109940 -109944 -7171803 -109980 -7171791 -110025 -6436449 -4605094 6427460 6427464 6427468 6427469 -109975 109976 109867"/>
    </vehicle>
    <vehicle id="28800_98" depart="28885.86">
        <route edges="108561 108550 108498 108466 108447 108376 -2798981 11034280 107978 14228398 14228399 107784 107689 107679"/>
    </vehicle>
    <vehicle id="28800_99" depart="28886.88">
        <route edges="-14020767 20110483 14228405 14228399 20105572 20105568 107571 107499 107494 107431"/>
    </vehicle>
    <vehicle id="28800_100" depart="28890.57">
        <route edges="-110180 6408248 7017636 110141 -110141 -7017636 -6408248 110180 5353566 109836 109627 109545 5353633 109295 -109355"/>
    </vehicle>
    <vehicle id="28800_101" depart="28891.70">
        <route edges="-109360 -9910076 -30122713 -30122712 -109688 -5087274 -13232758 -109896 -109936 -109940 -109944 -7171803 -109980 -7171791 -110025 -6436449 -4605094 6427460 6427464 6427468 6427469 -109975 109976 109867"/>
    </vehicle>
    <vehicle id="28800_102" depart="28893.80">
        <route edges="-30101511 -30101514 -30101513 -30101498 30101478 -108915 -109360 -9910076 -30122713 -30122712 -109688 -5087274 7155256"/>
    </vehicle>
    <vehicle id="28800_103" depart="28894.83">
        <route edges="30109381 30109383 30109384 30101483 30101484 30101481 30101478 -108915 -109360 -9910076 -30122713 -30122712 -109688 -5087274 -13232758 -109896 -109936 -109940 -109944 -7171803 -109980 -7171791 -110025 -110101 -14605393 -14605392 -110443 -110490 -30001036 30001036 110490"/>
    </vehicle>
    <vehicle id="28800_104" depart="28894.93">
        <route edges="-30111770 -30111765 -14070155 14663886 108738 30013725 -5066262 -6436415 -6436414 -6436410 -3011699 -109489 -3011683 -5066211 -7179817 -7179805 -110026 110025 7171791 14605474"/>
    </vehicle>
    <vehicle id="28800_105" depart="28897.22">
        <route edges="6427468 6427469 109950 109931 109905 109877 109853 -110026 -6436449"/>
    </vehicle>
    <vehicle id="28800_106" depart="28898.34">
        <route edges="-30108020 -30108023 -30108022 109188 109260 109320 109369 30123087 -109489 -3011683 -5066211 -7179817 -7179805 -110026 110025 7171791 109980 7171803 109944 109940 109936 109896 13232758 -110000 -110083 -110191"/>
    </vehicle>
    <vehicle id="28800_107" depart="28899.65">
        <route edges="107853 -107679 -107689 -107784 -14228399 -14228398 -107978 -11034280 -7204415 -2809289 -30013725 -108738 -14663886 -13974855 -6535415 -4684710 -108988 -4684714 -4684711 -12691191 -109276 -109295 -5353633 -109545"/>
    </vehicle>
    <vehicle id="28800_108" depart="28899.89">
        <route edges="-108738 -14663886 14070155 30111765 30111766 30111763 14070197 14070198 14070199 14070200 -20054775 -20054774"/>
    </vehicle>
    <vehicle id="28800_109" depart="28899.90">
        <route edges="-7204388 -108454 -14070145 -14070200 -14070199 -20050911"/>
    </vehicle>
    <vehicle id="28800_110" depart="28900.36">
        <route edges="109363 -109320 -109260 -109188 -109170 -109108 -109062 -108956 -108988 -4684714 -4684711 -5353610"/>
    </vehicle>
    <vehicle id="28800_111" depart="28901.32">
        <route edges="3497264 110180 5353566 109836 109626 109610 109588 109583 109558 109499"/>
    </vehicle>
    <vehicle id="28800_112" depart="28902.45">
        <route edges="3497264 -110427 -110444 -110496 -110614"/>
    </vehicle>
    <vehicle id="28800_113" depart="28902.69">
        <route edges="-30101484 30101484 30101481 30101478 -108915 -109360 -9910076 -30122713 -30122712 -109688 -5087274 -13232758 -109896 -109936 -109940 -109944 -7171803 -109980 -7171791 -110025 -6436449 -4605094 -110141 -7017636 -6408248 -110427 -110444 -110496 -110614 -110728 -110783 -110819 -30087939 30087939 110819"/>
    </vehicle>
    <vehicle id="28800_114" depart="28903.04">
        <route edges="-110396 -110426 110427 6408248 7017636 110141 4605094 6436449 110025 7171791 109980 7171803 109944 109940 109954 -30100022 30100024 -30100037"/>
    </vehicle>
    <vehicle id="28800_115" depart="28903.29">
        <route edges="109937 109896 13232758 5087274 109688 30122712 30122713 9910076 109360 108915 -30101478 -30101481 -30101484 -30101483 -30109384 -30109383 -30109381 -30109380 -30109375 -30109374 14258090 108429 -108537 108537 -108429"/>
    </vehicle>
    <vehicle id="28800_116" depart="28903.44">
        <route edges="108899 -4684710 108956"/>
    </vehicle>
    <vehicle id="28800_117" depart="28904.53">
        <route edges="-109610 109610 109588 -109783 -109951 -6427469 -6427468 -6427464 -6427460 4605094"/>
    </vehicle>
    <vehicle id="28800_118" depart="28906.50">
        <route edges="-108293 -108350 -2798981 11034280 107978 14228398"/>
    </vehicle>
    <vehicle id="28800_119" depart="28908.19">
        <route edges="-108095 -108146 -108454 -14070145 -20054775 -20054774 -108899"/>
    </vehicle>
    <vehicle id="28800_120" depart="28908.50">
        <route edges="-30101495 30101481 30101478 -108915 -109360 -9910076 -30122713 -30122712 -109688 -5087274 -13232758 -109896 -109936 -109940 -109944 -7171803 -109980 -7171791 -110025 -6436449 -4605094 -110141 -7017636 -6408248 110180 110110 110094"/>
    </vehicle>
    <vehicle id="28800_121" depart="28908.92">
        <route edges="30101478 -108915 -109360 -9910076 -30122713 -30122712 -109688 -5087274 -13232758 -109896 -109936 -109940 -109944 -7171803 -109980 -7171791 -110025 -6436449 -4605094 -110141 -7017636 -6408248 110180 -110180 6408248"/>
    </vehicle>
    <vehicle id="28800_122" depart="28910.63">
        <route edges="7171803 109944 109940 -109940 -109944 -7171803 -109980 -7171791 -110025 -110101 -20040334 -20040333 5047774"/>
    </vehicle>
    <vehicle id="28800_123" depart="28910.70">
        <route edges="-7155256 -13232758 -109896 -109936 -109940 -109944 -7171803 -109980 -7171791 -110025 110026 7179805 7179817 5066211 3011683 109489 3011699 6436410 6436414 6436415 5066262 -30013725 30013726 108601 108561 108550 108498 108466 108447 108376 -2798981"/>
    </vehicle>
    <vehicle id="28800_124" depart="28911.93">
        <route edges="109758 -109758 -109782 -109803 -109816 -109835 -5353566 -110180 -3497264"/>
    </vehicle>
    <vehicle id="28800_125" depart="28912.34">
        <route edges="14605482 -14605482 -14605473 -14605415 -14605414 -14605392 -110296 -110338"/>
    </vehicle>
    <vehicle id="28800_126" depart="28913.00">
        <route edges="107431 -107431 -7204470 -108009 -108086 -14020767 -14020766 -9638338 -6332605 11034280 107978"/>
    </vehicle>
    <vehicle id="28800_127" depart="28913.64">
        <route edges="-110498 110497 110366 110296 14605392 14605393 110101 -6436449 -4605094 6427460 6427464 6427468 6427469 109950"/>
    </vehicle>
    <vehicle id="28800_128" depart="28917.59">
        <route edges="107958 107935 107890 107802 20105539 20105581 20110472 -14228398 -107978 -11034280 2798981 -108376 -108447 -108466 -108498 -108550 -108561 -108601"/>
    </vehicle>
    <vehicle id="28800_129" depart="28918.34">
        <route edges="-30108022 109188 109260 109320 109369 30123087 -109489 -3011683 -5066211 -7179817 -7179805 -110026 110025 7171791 109980 7171803 109944 109940 109936 109896 13232758 -110000 -110083 -110191"/>
    </vehicle>
    <vehicle id="28800_130" depart="28920.13">
        <route edges="-107689 -107784 -14228399 -14228398 -107978 -11034280 2798981"/>
    </vehicle>
    <vehicle id="28800_131" depart="28920.45">
        <route edges="20050928 20050929 -14070197 -30111763 -30111766 -30111765 -14070155 14663886 108738 30013725 -5066262 5066262"/>
    </vehicle>
    <vehicle id="28800_132" depart="28920.85">
        <route edges="-30100022 30100022 109928 -109936 -109940 -109944 -7171803 -109980 -7171791 -110025 110026 7179805 7179817 5066211 3011683 109489 -30123087 -109369 -109320 -109260 -109188 -109170 -109108 -109062 -108956 4684710 -108899 108899 -4684710"/>
    </vehicle>
    <vehicle id="28800_133" depart="28920.99">
        <route edges="-30101488 30101484 30101481 30101478 -108915 -109360 -9910076 -30122713 -30122712 -109688 -5087274 -13232758 -109896 -109936 -109940 -109944 -7171803 -109980 14605474 -14605482 -14605473 -14605415"/>
    </vehicle>