<?xml version="1.0" encoding="UTF-8"?>

<!-- generated on 2024-08-21 18:23:02.719081 by gtfs2pt.py UNKNOWN
<configuration>
    <gtfs value="data/raw/ttc-routes-and-schedules/TTC Routes and Schedules Data.zip"/>
    <date value="20240813"/>
    <modes value="bus"/>
    <vtype-output value="data/sumo_networks/dorset_park/dorset_park_public_transport_vtype.rou.xml"/>
    <begin value="28800.0"/>
    <end value="34200.0"/>
    <network value="data/sumo_networks/dorset_park/dorset_park_arterial.net.xml"/>
    <route-output value="data/sumo_networks/dorset_park/dorset_park_public_transport.rou.xml"/>
    <additional-output value="data/sumo_networks/dorset_park/dorset_park_gtfs_stops_routes.add.xml"/>
</configuration>
-->

<routes xmlns:xsi="http://www.w3.org/2001/XMLSchema-instance" xsi:noNamespaceSchemaLocation="http://sumo.dlr.de/xsd/routes_file.xsd">
    <route id="47511132" edges="-108537 108537 -108429 -108432 -108501 30083021 30083022 30109374 30109375 30109380 30109381 30109383 30109384 -30137869 -109688 -5087274 -110000">
        <stop busStop="47511132.0" duration="10" until="0"/> <!-- Midland Ave at Ellesmere Rd South Side -->
        <stop busStop="47511132.1" duration="10" until="168"/> <!-- Midland Ave at Lawrence Ave East South Side -->
    </route>
    <route id="47511292" edges="5066262 108622 108580 6541761 108534 108519 108515 108501 108432 108429 108388">
        <stop busStop="47511292.0" duration="10" until="0"/> <!-- Kennedy Rd at Ellesmere Rd -->
        <stop busStop="47511292.1" duration="10" until="134"/> <!-- Ellesmere Rd at Midland Ave East Side -->
    </route>
    <route id="47511340" edges="110026 7179805 7179817 5066211 3011683 109489 3011699 6436410 6436414 6436415 5066262 108622 108580 6541761 108534 108519 108515 108501 108432 108429 108388">
        <stop busStop="47511340.0" duration="10" until="0"/> <!-- Kennedy Rd at Lawrence Ave East East Side -->
        <stop busStop="47511292.0" duration="10" until="172"/> <!-- Kennedy Rd at Ellesmere Rd -->
        <stop busStop="47511292.1" duration="10" until="306"/> <!-- Ellesmere Rd at Midland Ave East Side -->
    </route>
    <route id="47511344" edges="110026 7179805 7179817 5066211 3011683 109489 3011699 6436410 6436414 6436415 5066262">
        <stop busStop="47511340.0" duration="10" until="0"/> <!-- Kennedy Rd at Lawrence Ave East East Side -->
        <stop busStop="47511292.0" duration="10" until="172"/> <!-- Kennedy Rd at Ellesmere Rd -->
    </route>
    <route id="47511624" edges="-108537">
        <stop busStop="47511132.0" duration="10" until="0"/> <!-- Midland Ave at Ellesmere Rd South Side -->
    </route>
    <route id="47511632" edges="-108537 108537 -108429 -108432 -108501 30083021 30083022 30109374 30109375 30109380 30109381 30109383 30109384 -30137869 -109688 -5087274 -110000">
        <stop busStop="47511132.0" duration="10" until="0"/> <!-- Midland Ave at Ellesmere Rd South Side -->
        <stop busStop="47511132.1" duration="10" until="168"/> <!-- Midland Ave at Lawrence Ave East South Side -->
    </route>
    <route id="47511717" edges="110026 7179805 7179817 5066211 3011683 109489 3011699 6436410 6436414 6436415 5066262 108622 108580 6541761 108534 108519 108515 108501 108432 108429 108388">
        <stop busStop="47511340.0" duration="10" until="0"/> <!-- Kennedy Rd at Lawrence Ave East East Side -->
        <stop busStop="47511292.0" duration="10" until="172"/> <!-- Kennedy Rd at Ellesmere Rd -->
        <stop busStop="47511292.1" duration="10" until="309"/> <!-- Ellesmere Rd at Midland Ave East Side -->
    </route>
    <route id="47511958" edges="-108537 108537 -108429 -108432 -108501 30083021 30083022 30109374 30109375 30109380 30109381 30109383 30109384 -30137869 -109688 -5087274 -110000">
        <stop busStop="47511132.0" duration="10" until="0"/> <!-- Midland Ave at Ellesmere Rd South Side -->
        <stop busStop="47511132.1" duration="10" until="168"/> <!-- Midland Ave at Lawrence Ave East South Side -->
    </route>
    <route id="47512024" edges="110026 7179805 7179817 5066211 3011683 109489 3011699 6436410 6436414 6436415 5066262 108622 108580 6541761 108534 108519 108515 108501 108432 108429 108388">
        <stop busStop="47511340.0" duration="10" until="0"/> <!-- Kennedy Rd at Lawrence Ave East East Side -->
        <stop busStop="47511292.0" duration="10" until="172"/> <!-- Kennedy Rd at Ellesmere Rd -->
        <stop busStop="47511292.1" duration="10" until="302"/> <!-- Ellesmere Rd at Midland Ave East Side -->
    </route>
    <route id="47513774" edges="-108095 -108146 -108454 -14070145 -20054775 -20054774 -4684710 -108988 -4684714 -4684711 -12691191 -109276 -109295 -5353633 -109545 -109627 -109836 -5353566 -110180 -110427 -110444 -110496 -110614 -110728">
        <stop busStop="47513774.2" duration="10" until="0"/> <!-- Birchmount Rd at Highway 401 - Walkway North of Rolark -->
        <stop busStop="47513774.3" duration="10" until="79"/> <!-- Birchmount Rd at Rolark Dr -->
        <stop busStop="47513774.4" duration="10" until="130"/> <!-- 1792 Birchmount Rd -->
        <stop busStop="47513774.5" duration="10" until="165"/> <!-- Birchmount Rd at Ellesmere Rd -->
        <stop busStop="47513774.6" duration="10" until="216"/> <!-- Birchmount Rd at Canadian Rd -->
        <stop busStop="47513774.7" duration="10" until="291"/> <!-- Birchmount Rd at Ellendale Dr -->
        <stop busStop="47513774.8" duration="10" until="360"/> <!-- Birchmount Rd at Exford Dr -->
        <stop busStop="47513774.9" duration="10" until="427"/> <!-- Birchmount Rd at Merryfield Dr -->
        <stop busStop="47513774.10" duration="10" until="480"/> <!-- 1360 Birchmount Rd -->
        <stop busStop="47513774.11" duration="10" until="525"/> <!-- Birchmount Rd at Lawrence Ave East -->
        <stop busStop="47513774.12" duration="10" until="599"/> <!-- Birchmount Rd at Modern Rd -->
        <stop busStop="47513774.13" duration="10" until="640"/> <!-- Birchmount Rd at Flora Dr -->
        <stop busStop="47513774.14" duration="10" until="668"/> <!-- Birchmount Rd at Crouse Rd -->
    </route>
    <route id="47513777" edges="-4684711 -12691191 -109276 -109295 -5353633 -109545 -109627 -109836 -5353566 -110180 -110427 -110444 -110496 -110614 -110728">
        <stop busStop="47513774.6" duration="10" until="0"/> <!-- Birchmount Rd at Canadian Rd -->
        <stop busStop="47513774.7" duration="10" until="75"/> <!-- Birchmount Rd at Ellendale Dr -->
        <stop busStop="47513774.8" duration="10" until="144"/> <!-- Birchmount Rd at Exford Dr -->
        <stop busStop="47513774.9" duration="10" until="211"/> <!-- Birchmount Rd at Merryfield Dr -->
        <stop busStop="47513774.10" duration="10" until="264"/> <!-- 1360 Birchmount Rd -->
        <stop busStop="47513774.11" duration="10" until="309"/> <!-- Birchmount Rd at Lawrence Ave East -->
        <stop busStop="47513774.12" duration="10" until="383"/> <!-- Birchmount Rd at Modern Rd -->
        <stop busStop="47513774.13" duration="10" until="424"/> <!-- Birchmount Rd at Flora Dr -->
        <stop busStop="47513774.14" duration="10" until="452"/> <!-- Birchmount Rd at Crouse Rd -->
    </route>
    <route id="47513822" edges="-108095 -108146 -108454 -14070145 -20054775 -20054774">
        <stop busStop="47513774.2" duration="10" until="0"/> <!-- Birchmount Rd at Highway 401 - Walkway North of Rolark -->
        <stop busStop="47513774.3" duration="10" until="79"/> <!-- Birchmount Rd at Rolark Dr -->
        <stop busStop="47513774.4" duration="10" until="130"/> <!-- 1792 Birchmount Rd -->
        <stop busStop="47513774.5" duration="10" until="165"/> <!-- Birchmount Rd at Ellesmere Rd -->
    </route>
    <route id="47513828" edges="110783 110728 110614 110496 110444 110427 110180 5353566 109836 109627 109545 5353633 109295 109276 12691191 4684711 4684714 108988 4684710 20054774 20054775 14070145 108454 108146 108095">
        <stop busStop="47513828.0" duration="10" until="0"/> <!-- Birchmount Rd at Crouse Rd -->
        <stop busStop="47513828.1" duration="10" until="27"/> <!-- Birchmount Rd at Flora Dr -->
        <stop busStop="47513828.2" duration="10" until="66"/> <!-- Birchmount Rd at Modern Rd -->
        <stop busStop="47513828.3" duration="10" until="134"/> <!-- Birchmount Rd at Lawrence Ave East -->
        <stop busStop="47513828.4" duration="10" until="169"/> <!-- Birchmount Rd at Dulverton Rd North Side -->
        <stop busStop="47513828.5" duration="10" until="240"/> <!-- Birchmount Rd at Merryfield Dr -->
        <stop busStop="47513828.6" duration="10" until="308"/> <!-- Birchmount Rd at Exford Dr North Side -->
        <stop busStop="47513828.7" duration="10" until="396"/> <!-- Birchmount Rd at Vauxhall Dr -->
        <stop busStop="47513828.8" duration="10" until="450"/> <!-- Birchmount Rd at Canadian Rd -->
        <stop busStop="47513828.9" duration="10" until="494"/> <!-- Birchmount Rd at Ellesmere Rd -->
        <stop busStop="47513828.10" duration="10" until="540"/> <!-- Opposite 1792 Birchmount Rd -->
        <stop busStop="47513828.11" duration="10" until="571"/> <!-- Birchmount Rd at Rolark Dr -->
        <stop busStop="47513828.12" duration="10" until="644"/> <!-- Birchmount Rd at Highway 401 - Walkway North of Rolark -->
    </route>
    <route id="47513834" edges="110427 110180 5353566 109836 109627 109545 5353633 109295 109276 12691191 4684711 4684714 108988 4684710 20054774 20054775 14070145 108454 108146 108095">
        <stop busStop="47513828.3" duration="10" until="0"/> <!-- Birchmount Rd at Lawrence Ave East -->
        <stop busStop="47513828.4" duration="10" until="35"/> <!-- Birchmount Rd at Dulverton Rd North Side -->
        <stop busStop="47513828.5" duration="10" until="106"/> <!-- Birchmount Rd at Merryfield Dr -->
        <stop busStop="47513828.6" duration="10" until="174"/> <!-- Birchmount Rd at Exford Dr North Side -->
        <stop busStop="47513828.7" duration="10" until="262"/> <!-- Birchmount Rd at Vauxhall Dr -->
        <stop busStop="47513828.8" duration="10" until="316"/> <!-- Birchmount Rd at Canadian Rd -->
        <stop busStop="47513828.9" duration="10" until="360"/> <!-- Birchmount Rd at Ellesmere Rd -->
        <stop busStop="47513828.10" duration="10" until="406"/> <!-- Opposite 1792 Birchmount Rd -->
        <stop busStop="47513828.11" duration="10" until="437"/> <!-- Birchmount Rd at Rolark Dr -->
        <stop busStop="47513828.12" duration="10" until="510"/> <!-- Birchmount Rd at Highway 401 - Walkway North of Rolark -->
    </route>
    <route id="47513858" edges="110783 110728 110614 110496 110444 110427 110180 5353566 109836 109627 109545 5353633 109295 109276 12691191 4684711 4684714 108988 4684710 20054774 20054775 14070145 108454 108146 108095">
        <stop busStop="47513828.0" duration="10" until="0"/> <!-- Birchmount Rd at Crouse Rd -->
        <stop busStop="47513828.1" duration="10" until="27"/> <!-- Birchmount Rd at Flora Dr -->
        <stop busStop="47513828.2" duration="10" until="66"/> <!-- Birchmount Rd at Modern Rd -->
        <stop busStop="47513828.3" duration="10" until="134"/> <!-- Birchmount Rd at Lawrence Ave East -->
        <stop busStop="47513828.4" duration="10" until="165"/> <!-- Birchmount Rd at Dulverton Rd North Side -->
        <stop busStop="47513828.5" duration="10" until="224"/> <!-- Birchmount Rd at Merryfield Dr -->
        <stop busStop="47513828.6" duration="10" until="281"/> <!-- Birchmount Rd at Exford Dr North Side -->
        <stop busStop="47513828.7" duration="10" until="354"/> <!-- Birchmount Rd at Vauxhall Dr -->
        <stop busStop="47513828.8" duration="10" until="399"/> <!-- Birchmount Rd at Canadian Rd -->
        <stop busStop="47513828.9" duration="10" until="436"/> <!-- Birchmount Rd at Ellesmere Rd -->
        <stop busStop="47513828.10" duration="10" until="487"/> <!-- Opposite 1792 Birchmount Rd -->
        <stop busStop="47513828.11" duration="10" until="524"/> <!-- Birchmount Rd at Rolark Dr -->
        <stop busStop="47513828.12" duration="10" until="612"/> <!-- Birchmount Rd at Highway 401 - Walkway North of Rolark -->
    </route>
    <route id="47513901" edges="110783 110728 110614 110496 110444 110427">
        <stop busStop="47513828.0" duration="10" until="0"/> <!-- Birchmount Rd at Crouse Rd -->
        <stop busStop="47513828.1" duration="10" until="27"/> <!-- Birchmount Rd at Flora Dr -->
        <stop busStop="47513828.2" duration="10" until="66"/> <!-- Birchmount Rd at Modern Rd -->
        <stop busStop="47513828.3" duration="10" until="134"/> <!-- Birchmount Rd at Lawrence Ave East -->
    </route>
    <route id="47520335" edges="110026">
        <stop busStop="47511340.0" duration="10" until="0"/> <!-- Kennedy Rd at Lawrence Ave East East Side -->
    </route>
    <route id="47520336" edges="110026 7179805 7179817 5066211 3011683 109489 3011699 6436410 6436414 6436415 5066262 108622 108580 6541761 108534 108519 108515 108501 108432 108429 108388">
        <stop busStop="47511340.0" duration="10" until="0"/> <!-- Kennedy Rd at Lawrence Ave East East Side -->
        <stop busStop="47511292.0" duration="10" until="172"/> <!-- Kennedy Rd at Ellesmere Rd -->
        <stop busStop="47511292.1" duration="10" until="309"/> <!-- Ellesmere Rd at Midland Ave East Side -->
    </route>
    <route id="47520477" edges="-108537 108537 -108429 -108432 -108501 30083021 30083022 30109374 30109375 30109380 30109381 30109383 30109384 -30137869 -109688 -5087274 -110000">
        <stop busStop="47511132.0" duration="10" until="0"/> <!-- Midland Ave at Ellesmere Rd South Side -->
        <stop busStop="47511132.1" duration="10" until="168"/> <!-- Midland Ave at Lawrence Ave East South Side -->
    </route>
    <route id="47521609" edges="-11034280 -7204415 -2809289 -5066262 -6436415 -6436414 -6436410 -3011699 -109489 -3011683 -5066211 -7179817 -7179805 -110026 -110101 -14605393 -14605392 -110443 -110490 -30001036">
        <stop busStop="47521609.1" duration="10" until="0"/> <!-- Kennedy Rd at Antrim Cres South Side -->
        <stop busStop="47521609.2" duration="10" until="71"/> <!-- Kennedy Rd at Glamorgan Ave South Side -->
        <stop busStop="47521609.3" duration="10" until="144"/> <!-- Kennedy Rd at Ellesmere Rd -->
        <stop busStop="47521609.4" duration="10" until="192"/> <!-- 1420 Kennedy Rd -->
        <stop busStop="47521609.5" duration="10" until="208"/> <!-- 1400 Kennedy Rd -->
        <stop busStop="47521609.6" duration="10" until="240"/> <!-- Kennedy Rd at Brigstock Rd South Side -->
        <stop busStop="47521609.7" duration="10" until="267"/> <!-- Kennedy Rd at Munham Gate -->
        <stop busStop="47521609.8" duration="10" until="311"/> <!-- Kennedy Rd at Shropshire Dr South Side -->
        <stop busStop="47521609.9" duration="10" until="347"/> <!-- Kennedy Rd at Forbes Rd South Side -->
        <stop busStop="47521609.10" duration="10" until="379"/> <!-- Kennedy Rd at Wickware Gate -->
        <stop busStop="47521609.11" duration="10" until="411"/> <!-- Kennedy Rd at Cornwallis Dr South Side -->
        <stop busStop="47521609.12" duration="10" until="445"/> <!-- Kennedy Rd at Lawrence Ave East -->
        <stop busStop="47521609.13" duration="10" until="474"/> <!-- Kennedy Rd at Flora Dr -->
        <stop busStop="47521609.14" duration="10" until="526"/> <!-- Kennedy Rd at Radnor Ave -->
        <stop busStop="47521609.15" duration="10" until="608"/> <!-- Kennedy Rd at Ranstone Gardens -->
    </route>
    <route id="47521623" edges="-11034280 -7204415 -2809289 -5066262 -6436415 -6436414 -6436410 -3011699 -109489 -3011683 -5066211 -7179817 -7179805 -110026 -110101 -14605393 -14605392">
        <stop busStop="47521609.1" duration="10" until="0"/> <!-- Kennedy Rd at Antrim Cres South Side -->
        <stop busStop="47521609.2" duration="10" until="71"/> <!-- Kennedy Rd at Glamorgan Ave South Side -->
        <stop busStop="47521609.3" duration="10" until="144"/> <!-- Kennedy Rd at Ellesmere Rd -->
        <stop busStop="47521609.4" duration="10" until="192"/> <!-- 1420 Kennedy Rd -->
        <stop busStop="47521609.5" duration="10" until="208"/> <!-- 1400 Kennedy Rd -->
        <stop busStop="47521609.6" duration="10" until="240"/> <!-- Kennedy Rd at Brigstock Rd South Side -->
        <stop busStop="47521609.7" duration="10" until="267"/> <!-- Kennedy Rd at Munham Gate -->
        <stop busStop="47521609.8" duration="10" until="311"/> <!-- Kennedy Rd at Shropshire Dr South Side -->
        <stop busStop="47521609.9" duration="10" until="347"/> <!-- Kennedy Rd at Forbes Rd South Side -->
        <stop busStop="47521609.10" duration="10" until="379"/> <!-- Kennedy Rd at Wickware Gate -->
        <stop busStop="47521609.11" duration="10" until="411"/> <!-- Kennedy Rd at Cornwallis Dr South Side -->
        <stop busStop="47521609.12" duration="10" until="445"/> <!-- Kennedy Rd at Lawrence Ave East -->
        <stop busStop="47521609.13" duration="10" until="474"/> <!-- Kennedy Rd at Flora Dr -->
        <stop busStop="47521609.14" duration="10" until="526"/> <!-- Kennedy Rd at Radnor Ave -->
    </route>
    <route id="47521666" edges="-107831 -108009 -108086 -14020767 -14020766 -9638338 -6332605 -7204415 -2809289 -5066262 -6436415 -6436414 -6436410 -3011699 -109489 -3011683 -5066211 -7179817 -7179805 -110026 -110101 -14605393 -14605392 -110443 -110490 -30001036">
        <stop busStop="47521666.2" duration="10" until="0"/> <!-- Progress Ave at Cosentino Dr West Side -->
        <stop busStop="47521666.3" duration="10" until="41"/> <!-- Progress Ave at Midland Ave -->
        <stop busStop="47521666.4" duration="10" until="96"/> <!-- 80 Progress Ave -->
        <stop busStop="47521666.5" duration="10" until="164"/> <!-- Progress Ave at William Kitchen Rd West Side -->
        <stop busStop="47521609.2" duration="10" until="229"/> <!-- Kennedy Rd at Glamorgan Ave South Side -->
        <stop busStop="47521609.3" duration="10" until="290"/> <!-- Kennedy Rd at Ellesmere Rd -->
        <stop busStop="47521609.4" duration="10" until="338"/> <!-- 1420 Kennedy Rd -->
        <stop busStop="47521609.5" duration="10" until="354"/> <!-- 1400 Kennedy Rd -->
        <stop busStop="47521609.6" duration="10" until="386"/> <!-- Kennedy Rd at Brigstock Rd South Side -->
        <stop busStop="47521609.7" duration="10" until="413"/> <!-- Kennedy Rd at Munham Gate -->
        <stop busStop="47521609.8" duration="10" until="457"/> <!-- Kennedy Rd at Shropshire Dr South Side -->
        <stop busStop="47521609.9" duration="10" until="493"/> <!-- Kennedy Rd at Forbes Rd South Side -->
        <stop busStop="47521609.10" duration="10" until="525"/> <!-- Kennedy Rd at Wickware Gate -->
        <stop busStop="47521609.11" duration="10" until="557"/> <!-- Kennedy Rd at Cornwallis Dr South Side -->
        <stop busStop="47521609.12" duration="10" until="591"/> <!-- Kennedy Rd at Lawrence Ave East -->
        <stop busStop="47521609.13" duration="10" until="620"/> <!-- Kennedy Rd at Flora Dr -->
        <stop busStop="47521609.14" duration="10" until="672"/> <!-- Kennedy Rd at Radnor Ave -->
        <stop busStop="47521609.15" duration="10" until="754"/> <!-- Kennedy Rd at Ranstone Gardens -->
    </route>
    <route id="47521667" edges="-107831 -108009 -108086 -14020767 -14020766 -9638338 -6332605 -7204415 -2809289 -5066262 -6436415 -6436414 -6436410 -3011699 -109489 -3011683 -5066211 -7179817 -7179805 -110026 -110101 -14605393 -14605392 -110443 -110490 -30001036">
        <stop busStop="47521666.2" duration="10" until="0"/> <!-- Progress Ave at Cosentino Dr West Side -->
        <stop busStop="47521666.3" duration="10" until="41"/> <!-- Progress Ave at Midland Ave -->
        <stop busStop="47521666.4" duration="10" until="96"/> <!-- 80 Progress Ave -->
        <stop busStop="47521666.5" duration="10" until="164"/> <!-- Progress Ave at William Kitchen Rd West Side -->
        <stop busStop="47521609.2" duration="10" until="229"/> <!-- Kennedy Rd at Glamorgan Ave South Side -->
        <stop busStop="47521609.3" duration="10" until="290"/> <!-- Kennedy Rd at Ellesmere Rd -->
        <stop busStop="47521609.4" duration="10" until="338"/> <!-- 1420 Kennedy Rd -->
        <stop busStop="47521609.5" duration="10" until="354"/> <!-- 1400 Kennedy Rd -->
        <stop busStop="47521609.6" duration="10" until="386"/> <!-- Kennedy Rd at Brigstock Rd South Side -->
        <stop busStop="47521609.7" duration="10" until="413"/> <!-- Kennedy Rd at Munham Gate -->
        <stop busStop="47521609.8" duration="10" until="457"/> <!-- Kennedy Rd at Shropshire Dr South Side -->
        <stop busStop="47521609.9" duration="10" until="493"/> <!-- Kennedy Rd at Forbes Rd South Side -->
        <stop busStop="47521609.10" duration="10" until="525"/> <!-- Kennedy Rd at Wickware Gate -->
        <stop busStop="47521609.11" duration="10" until="557"/> <!-- Kennedy Rd at Cornwallis Dr South Side -->
        <stop busStop="47521609.12" duration="10" until="591"/> <!-- Kennedy Rd at Lawrence Ave East -->
        <stop busStop="47521609.13" duration="10" until="620"/> <!-- Kennedy Rd at Flora Dr -->
        <stop busStop="47521609.14" duration="10" until="672"/> <!-- Kennedy Rd at Radnor Ave -->
        <stop busStop="47521609.15" duration="10" until="754"/> <!-- Kennedy Rd at Ranstone Gardens -->
    </route>
    <route id="47521700" edges="-11034280 -7204415 -2809289 -5066262 -6436415 -6436414 -6436410 -3011699 -109489 -3011683 -5066211 -7179817 -7179805 -110026 -110101 -14605393 -14605392 -110443 -110490 -30001036">
        <stop busStop="47521609.1" duration="10" until="0"/> <!-- Kennedy Rd at Antrim Cres South Side -->
        <stop busStop="47521609.2" duration="10" until="50"/> <!-- Kennedy Rd at Glamorgan Ave South Side -->
        <stop busStop="47521609.3" duration="10" until="101"/> <!-- Kennedy Rd at Ellesmere Rd -->
        <stop busStop="47521609.4" duration="10" until="144"/> <!-- 1420 Kennedy Rd -->
        <stop busStop="47521609.5" duration="10" until="160"/> <!-- 1400 Kennedy Rd -->
        <stop busStop="47521609.6" duration="10" until="192"/> <!-- Kennedy Rd at Brigstock Rd South Side -->
        <stop busStop="47521609.7" duration="10" until="219"/> <!-- Kennedy Rd at Munham Gate -->
        <stop busStop="47521609.8" duration="10" until="263"/> <!-- Kennedy Rd at Shropshire Dr South Side -->
        <stop busStop="47521609.9" duration="10" until="299"/> <!-- Kennedy Rd at Forbes Rd South Side -->
        <stop busStop="47521609.10" duration="10" until="331"/> <!-- Kennedy Rd at Wickware Gate -->
        <stop busStop="47521609.11" duration="10" until="363"/> <!-- Kennedy Rd at Cornwallis Dr South Side -->
        <stop busStop="47521609.12" duration="10" until="397"/> <!-- Kennedy Rd at Lawrence Ave East -->
        <stop busStop="47521609.13" duration="10" until="426"/> <!-- Kennedy Rd at Flora Dr -->
        <stop busStop="47521609.14" duration="10" until="478"/> <!-- Kennedy Rd at Radnor Ave -->
        <stop busStop="47521609.15" duration="10" until="560"/> <!-- Kennedy Rd at Ranstone Gardens -->
    </route>
    <route id="47521765" edges="-11034280">
        <stop busStop="47521609.1" duration="10" until="0"/> <!-- Kennedy Rd at Antrim Cres South Side -->
    </route>
    <route id="47521791" edges="-30001036">
        <stop busStop="47521609.15" duration="10" until="0"/> <!-- Kennedy Rd at Ranstone Gardens -->
    </route>
    <route id="47521792" edges="-11034280 -7204415 -2809289 -5066262 -6436415 -6436414 -6436410 -3011699 -109489 -3011683 -5066211 -7179817 -7179805 -110026 -110101 -14605393 -14605392 -110443 -110490 -30001036">
        <stop busStop="47521609.1" duration="10" until="0"/> <!-- Kennedy Rd at Antrim Cres South Side -->
        <stop busStop="47521609.2" duration="10" until="71"/> <!-- Kennedy Rd at Glamorgan Ave South Side -->
        <stop busStop="47521609.3" duration="10" until="144"/> <!-- Kennedy Rd at Ellesmere Rd -->
        <stop busStop="47521609.4" duration="10" until="192"/> <!-- 1420 Kennedy Rd -->
        <stop busStop="47521609.5" duration="10" until="208"/> <!-- 1400 Kennedy Rd -->
        <stop busStop="47521609.6" duration="10" until="240"/> <!-- Kennedy Rd at Brigstock Rd South Side -->
        <stop busStop="47521609.7" duration="10" until="267"/> <!-- Kennedy Rd at Munham Gate -->
        <stop busStop="47521609.8" duration="10" until="311"/> <!-- Kennedy Rd at Shropshire Dr South Side -->
        <stop busStop="47521609.9" duration="10" until="347"/> <!-- Kennedy Rd at Forbes Rd South Side -->
        <stop busStop="47521609.10" duration="10" until="379"/> <!-- Kennedy Rd at Wickware Gate -->
        <stop busStop="47521609.11" duration="10" until="411"/> <!-- Kennedy Rd at Cornwallis Dr South Side -->
        <stop busStop="47521609.12" duration="10" until="445"/> <!-- Kennedy Rd at Lawrence Ave East -->
        <stop busStop="47521609.13" duration="10" until="474"/> <!-- Kennedy Rd at Flora Dr -->
        <stop busStop="47521609.14" duration="10" until="526"/> <!-- Kennedy Rd at Radnor Ave -->
        <stop busStop="47521609.15" duration="10" until="608"/> <!-- Kennedy Rd at Ranstone Gardens -->
    </route>
    <route id="47521845" edges="30001036 110490 110443 14605392 14605393 110101 110026 7179805 7179817 5066211 3011683 109489 3011699 6436410 6436414 6436415 5066262 2809289 7204415 11034280">
        <stop busStop="47521845.1" duration="10" until="0"/> <!-- Kennedy Rd at Ranstone Gardens -->
        <stop busStop="47521845.2" duration="10" until="65"/> <!-- Kennedy Rd at Radnor Ave -->
        <stop busStop="47521845.3" duration="10" until="104"/> <!-- Kennedy Rd at Flora Dr -->
        <stop busStop="47521845.4" duration="10" until="123"/> <!-- Kennedy Rd at Lawrence Ave East -->
        <stop busStop="47521845.5" duration="10" until="189"/> <!-- Kennedy Rd at Cornwallis Dr North Side -->
        <stop busStop="47521845.6" duration="10" until="258"/> <!-- Kennedy Rd at Forbes Rd -->
        <stop busStop="47521845.7" duration="10" until="309"/> <!-- Kennedy Rd at Shropshire Dr North Side -->
        <stop busStop="47521845.8" duration="10" until="342"/> <!-- Kennedy Rd at Munham Gate -->
        <stop busStop="47521845.9" duration="10" until="390"/> <!-- Kennedy Rd at Brigstock Rd -->
        <stop busStop="47521845.10" duration="10" until="506"/> <!-- Kennedy Rd at Ellesmere Rd North Side -->
        <stop busStop="47521845.11" duration="10" until="571"/> <!-- Kennedy Rd at Progress Ave -->
        <stop busStop="47521845.12" duration="10" until="625"/> <!-- Kennedy Rd at Antrim Cres -->
    </route>
    <route id="47521846" edges="30001036 110490 110443 14605392 14605393 110101">
        <stop busStop="47521845.1" duration="10" until="0"/> <!-- Kennedy Rd at Ranstone Gardens -->
        <stop busStop="47521845.2" duration="10" until="65"/> <!-- Kennedy Rd at Radnor Ave -->
        <stop busStop="47521845.3" duration="10" until="104"/> <!-- Kennedy Rd at Flora Dr -->
        <stop busStop="47521845.4" duration="10" until="123"/> <!-- Kennedy Rd at Lawrence Ave East -->
    </route>
    <route id="47521847" edges="30001036 110490 110443 14605392 14605393 110101 110026 7179805 7179817 5066211 3011683 109489 3011699 6436410 6436414 6436415 5066262 2809289 7204415 11034280">
        <stop busStop="47521845.1" duration="10" until="0"/> <!-- Kennedy Rd at Ranstone Gardens -->
        <stop busStop="47521845.2" duration="10" until="65"/> <!-- Kennedy Rd at Radnor Ave -->
        <stop busStop="47521845.3" duration="10" until="104"/> <!-- Kennedy Rd at Flora Dr -->
        <stop busStop="47521845.4" duration="10" until="123"/> <!-- Kennedy Rd at Lawrence Ave East -->
        <stop busStop="47521845.5" duration="10" until="189"/> <!-- Kennedy Rd at Cornwallis Dr North Side -->
        <stop busStop="47521845.6" duration="10" until="258"/> <!-- Kennedy Rd at Forbes Rd -->
        <stop busStop="47521845.7" duration="10" until="309"/> <!-- Kennedy Rd at Shropshire Dr North Side -->
        <stop busStop="47521845.8" duration="10" until="342"/> <!-- Kennedy Rd at Munham Gate -->
        <stop busStop="47521845.9" duration="10" until="390"/> <!-- Kennedy Rd at Brigstock Rd -->
        <stop busStop="47521845.10" duration="10" until="506"/> <!-- Kennedy Rd at Ellesmere Rd North Side -->
        <stop busStop="47521845.11" duration="10" until="571"/> <!-- Kennedy Rd at Progress Ave -->
        <stop busStop="47521845.12" duration="10" until="625"/> <!-- Kennedy Rd at Antrim Cres -->
    </route>
    <route id="47521854" edges="30001036 110490 110443 14605392 14605393 110101 110026 7179805 7179817 5066211 3011683 109489 3011699 6436410 6436414 6436415 5066262 2809289 7204415 6332605 9638338 14020766 14020767 108086 108009 107831">
        <stop busStop="47521845.1" duration="10" until="0"/> <!-- Kennedy Rd at Ranstone Gardens -->
        <stop busStop="47521845.2" duration="10" until="65"/> <!-- Kennedy Rd at Radnor Ave -->
        <stop busStop="47521845.3" duration="10" until="104"/> <!-- Kennedy Rd at Flora Dr -->
        <stop busStop="47521845.4" duration="10" until="123"/> <!-- Kennedy Rd at Lawrence Ave East -->
        <stop busStop="47521845.5" duration="10" until="189"/> <!-- Kennedy Rd at Cornwallis Dr North Side -->
        <stop busStop="47521845.6" duration="10" until="258"/> <!-- Kennedy Rd at Forbes Rd -->
        <stop busStop="47521845.7" duration="10" until="309"/> <!-- Kennedy Rd at Shropshire Dr North Side -->
        <stop busStop="47521845.8" duration="10" until="342"/> <!-- Kennedy Rd at Munham Gate -->
        <stop busStop="47521845.9" duration="10" until="390"/> <!-- Kennedy Rd at Brigstock Rd -->
        <stop busStop="47521845.10" duration="10" until="504"/> <!-- Kennedy Rd at Ellesmere Rd North Side -->
        <stop busStop="47521854.11" duration="10" until="575"/> <!-- Progress Ave at Kennedy Rd East Side -->