<?xml version="1.0" encoding="UTF-8"?>

<!-- generated on 2024-08-21 21:03:48.002899 by randomTrips.py UNKNOWN
<configuration>
    <net-file value="data/sumo_networks/lawrence_park_south/lawrence_park_south_arterial.net.xml"/>
    <output-trip-file value="data/processed/lawrence_park_south/lawrence_park_south.trips.xml"/>
    <route-file value="data/processed/lawrence_park_south/initial_route_file.rou.xml"/>
    <vtype-output value="data/sumo_networks/lawrence_park_south/lawrence_park_south_vtype.rou.xml"/>
    <vehicle-class value="passenger"/>
    <validate value="True"/>
    <begin value="28800.0"/>
    <end value="34200.0"/>
    <period value="0.25"/>
</configuration>
-->

<!-- generated on 2024-08-21 21:03:45 by Eclipse SUMO duarouter Version 1.19.0
<configuration xmlns:xsi="http://www.w3.org/2001/XMLSchema-instance" xsi:noNamespaceSchemaLocation="http://sumo.dlr.de/xsd/duarouterConfiguration.xsd">

    <input>
        <net-file value="data/sumo_networks/lawrence_park_south/lawrence_park_south_arterial.net.xml"/>
        <additional-files value="data/sumo_networks/lawrence_park_south/lawrence_park_south_vtype.rou.xml"/>
        <route-files value="data/processed/lawrence_park_south/lawrence_park_south.trips.xml"/>
    </input>

    <output>
        <output-file value="data/processed/lawrence_park_south/lawrence_park_south.trips.xml.tmp"/>
        <vtype-output value="data/sumo_networks/lawrence_park_south/lawrence_park_south_vtype.rou.xml"/>
        <alternatives-output value="NUL"/>
        <write-trips value="true"/>
    </output>

    <time>
        <begin value="28800.0"/>
        <end value="34200.0"/>
    </time>

    <report>
        <no-warnings value="true"/>
        <ignore-errors value="true"/>
        <no-step-log value="true"/>
    </report>

</configuration>
-->

<routes xmlns:xsi="http://www.w3.org/2001/XMLSchema-instance" xsi:noNamespaceSchemaLocation="http://sumo.dlr.de/xsd/routes_file.xsd">
    <trip id="0" type="passenger" depart="28800.00" from="1138052" to="-1137771"/>
    <trip id="1" type="passenger" depart="28800.25" from="-30024554" to="-14023558"/>
    <trip id="2" type="passenger" depart="28800.50" from="14023558" to="1138283"/>
    <trip id="3" type="passenger" depart="28800.75" from="30101704" to="-1137943"/>
    <trip id="4" type="passenger" depart="28801.00" from="-30148378" to="-1137796"/>
    <trip id="5" type="passenger" depart="28801.25" from="-1138468" to="10258019"/>
    <trip id="6" type="passenger" depart="28801.50" from="-1137753" to="-1138386"/>
    <trip id="7" type="passenger" depart="28801.75" from="1138076" to="1137868"/>
    <trip id="8" type="passenger" depart="28802.00" from="-1138490" to="1137966"/>
    <trip id="9" type="passenger" depart="28802.25" from="30089597" to="-10133844"/>
    <trip id="10" type="passenger" depart="28802.50" from="30089590" to="1138434"/>
    <trip id="11" type="passenger" depart="28802.75" from="-30089683" to="-1138128"/>
    <trip id="12" type="passenger" depart="28803.00" from="8190967" to="-30094521"/>
    <trip id="13" type="passenger" depart="28803.25" from="-1137925" to="-1137975"/>
    <trip id="14" type="passenger" depart="28803.50" from="30094520" to="1138002"/>
    <trip id="15" type="passenger" depart="28803.75" from="30089591" to="14234246"/>
    <trip id="16" type="passenger" depart="28804.00" from="1137753" to="8263985"/>
    <trip id="17" type="passenger" depart="28804.25" from="-30101665" to="1137878"/>
    <trip id="18" type="passenger" depart="28804.50" from="30089658" to="1138035"/>
    <trip id="19" type="passenger" depart="28804.75" from="30094590" to="1137926"/>
    <trip id="20" type="passenger" depart="28805.00" from="1138313" to="-1137854"/>
    <trip id="21" type="passenger" depart="28805.25" from="-11901951" to="-30089562"/>
    <trip id="22" type="passenger" depart="28805.50" from="-1137895" to="-14036499"/>
    <trip id="23" type="passenger" depart="28805.75" from="-1137952" to="-30089126"/>
    <trip id="24" type="passenger" depart="28806.00" from="1138036" to="-30101661"/>
    <trip id="25" type="passenger" depart="28806.25" from="-30094599" to="-1138468"/>
    <trip id="26" type="passenger" depart="28806.50" from="-2687535" to="445530"/>
    <trip id="27" type="passenger" depart="28806.75" from="1138075" to="1138019"/>
    <trip id="28" type="passenger" depart="28807.00" from="-1138142" to="14171668"/>
    <trip id="29" type="passenger" depart="28807.25" from="-1138114" to="-30101704"/>
    <trip id="30" type="passenger" depart="28807.50" from="8344606" to="1138098"/>
    <trip id="31" type="passenger" depart="28807.75" from="1137850" to="1138313"/>
    <trip id="32" type="passenger" depart="28808.00" from="30094513" to="30089549"/>
    <trip id="33" type="passenger" depart="28808.25" from="-12174201" to="-1137806"/>
    <trip id="34" type="passenger" depart="28808.50" from="-30089615" to="-30056945"/>
    <trip id="35" type="passenger" depart="28808.75" from="-1138403" to="5070621"/>
    <trip id="36" type="passenger" depart="28809.00" from="30101657" to="-30089655"/>
    <trip id="37" type="passenger" depart="28809.25" from="1138089" to="-30110515"/>
    <trip id="38" type="passenger" depart="28809.50" from="30111185" to="-8322640"/>
    <trip id="39" type="passenger" depart="28809.75" from="-2364690" to="-2364195"/>
    <trip id="40" type="passenger" depart="28810.00" from="1137861" to="-30024536"/>
    <trip id="41" type="passenger" depart="28810.25" from="1137901" to="30111183"/>
    <trip id="42" type="passenger" depart="28810.50" from="-30104882" to="-12174201"/>
    <trip id="43" type="passenger" depart="28810.75" from="9741291" to="1137753"/>
    <trip id="44" type="passenger" depart="28811.00" from="-1137924" to="-1137856"/>
    <trip id="45" type="passenger" depart="28811.25" from="-1137975" to="1138062"/>
    <trip id="46" type="passenger" depart="28811.50" from="30089150" to="-4153112"/>
    <trip id="47" type="passenger" depart="28811.75" from="-1137869" to="-30104878"/>
    <trip id="48" type="passenger" depart="28812.00" from="8566546" to="1137835"/>
    <trip id="49" type="passenger" depart="28812.25" from="8322151" to="30101661"/>
    <trip id="50" type="passenger" depart="28812.50" from="-10145060" to="14023834"/>
    <trip id="51" type="passenger" depart="28812.75" from="1138175" to="1137851"/>
    <trip id="52" type="passenger" depart="28813.00" from="-2687535" to="1138099"/>
    <trip id="53" type="passenger" depart="28813.25" from="-1137976" to="-7754013"/>
    <trip id="54" type="passenger" depart="28813.50" from="-445895" to="7754671"/>
    <trip id="55" type="passenger" depart="28813.75" from="30101657" to="-30024537"/>
    <trip id="56" type="passenger" depart="28814.00" from="-8344202" to="-1138239"/>
    <trip id="57" type="passenger" depart="28814.25" from="30111183" to="30101680"/>
    <trip id="58" type="passenger" depart="28814.50" from="-30089562" to="1138097"/>
    <trip id="59" type="passenger" depart="28814.75" from="1137973" to="-1138114"/>
    <trip id="60" type="passenger" depart="28815.00" from="2364275" to="1137855"/>
    <trip id="61" type="passenger" depart="28815.25" from="30056944" to="1137836"/>
    <trip id="62" type="passenger" depart="28815.50" from="-10133494" to="-30089671"/>
    <trip id="63" type="passenger" depart="28815.75" from="-10257961" to="444382"/>
    <trip id="64" type="passenger" depart="28816.00" from="30101665" to="30094521"/>
    <trip id="65" type="passenger" depart="28816.25" from="-30089593" to="-1137878"/>
    <trip id="66" type="passenger" depart="28816.50" from="30101661" to="7666513"/>
    <trip id="67" type="passenger" depart="28816.75" from="-1137909" to="10133669"/>
    <trip id="68" type="passenger" depart="28817.00" from="-1137878" to="30056945"/>
    <trip id="69" type="passenger" depart="28817.25" from="2364635" to="-1138059"/>
    <trip id="70" type="passenger" depart="28817.50" from="-8190967" to="1137874"/>
    <trip id="71" type="passenger" depart="28817.75" from="-2364690" to="30101683"/>
    <trip id="72" type="passenger" depart="28818.00" from="-30148379" to="-1138490"/>
    <trip id="73" type="passenger" depart="28818.25" from="1137782" to="14234246"/>
    <trip id="74" type="passenger" depart="28818.50" from="-1138313" to="-30089643"/>
    <trip id="75" type="passenger" depart="28818.75" from="8566503" to="1138124"/>
    <trip id="76" type="passenger" depart="28819.00" from="-4030639" to="1137792"/>
    <trip id="77" type="passenger" depart="28819.25" from="-1138012" to="-14023620"/>
    <trip id="78" type="passenger" depart="28819.50" from="-30089678" to="1137959"/>
    <trip id="79" type="passenger" depart="28819.75" from="-13974078" to="-12174201"/>
    <trip id="80" type="passenger" depart="28820.00" from="-1137881" to="1138076"/>
    <trip id="81" type="passenger" depart="28820.25" from="-12174201" to="30120825"/>
    <trip id="82" type="passenger" depart="28820.50" from="30094579" to="-1137901"/>
    <trip id="83" type="passenger" depart="28820.75" from="-14036499" to="1138239"/>
    <trip id="84" type="passenger" depart="28821.00" from="-1138434" to="-1138071"/>
    <trip id="85" type="passenger" depart="28821.25" from="4030635" to="1137910"/>
    <trip id="86" type="passenger" depart="28821.50" from="-8168672" to="30089579"/>
    <trip id="87" type="passenger" depart="28821.75" from="30089591" to="-1138313"/>
    <trip id="88" type="passenger" depart="28822.00" from="-1137940" to="-7753851"/>
    <trip id="89" type="passenger" depart="28822.25" from="-30148379" to="-8344089"/>
    <trip id="90" type="passenger" depart="28822.50" from="1138665" to="1138266"/>
    <trip id="91" type="passenger" depart="28822.75" from="8344132" to="-1137976"/>
    <trip id="92" type="passenger" depart="28823.00" from="-30104886" to="-30094534"/>
    <trip id="93" type="passenger" depart="28823.25" from="30094590" to="-2364275"/>
    <trip id="94" type="passenger" depart="28823.50" from="-1138275" to="-8205745"/>
    <trip id="95" type="passenger" depart="28823.75" from="-30148378" to="-30089149"/>
    <trip id="96" type="passenger" depart="28824.00" from="-20140025" to="4030636"/>
    <trip id="97" type="passenger" depart="28824.25" from="-444482" to="30101665"/>
    <trip id="98" type="passenger" depart="28824.50" from="1137835" to="-1137867"/>
    <trip id="99" type="passenger" depart="28824.75" from="9741741" to="30094547"/>
    <trip id="100" type="passenger" depart="28825.00" from="8263985" to="4153112"/>
    <trip id="101" type="passenger" depart="28825.25" from="30094521" to="-1138172"/>
    <trip id="102" type="passenger" depart="28825.50" from="-8263985" to="-1138575"/>
    <trip id="103" type="passenger" depart="28825.75" from="-30104884" to="-1137880"/>
    <trip id="104" type="passenger" depart="28826.00" from="-30101665" to="8344078"/>
    <trip id="105" type="passenger" depart="28826.25" from="-2476347" to="30089573"/>
    <trip id="106" type="passenger" depart="28826.50" from="-445977" to="-5070621"/>
    <trip id="107" type="passenger" depart="28826.75" from="8190967" to="8566503"/>
    <trip id="108" type="passenger" depart="28827.00" from="1137849" to="14023718"/>
    <trip id="109" type="passenger" depart="28827.25" from="-1138097" to="-30089597"/>
    <trip id="110" type="passenger" depart="28827.50" from="8263985" to="1137931"/>
    <trip id="111" type="passenger" depart="28827.75" from="1137796" to="2364668"/>
    <trip id="112" type="passenger" depart="28828.00" from="-1137856" to="1137951"/>
    <trip id="113" type="passenger" depart="28828.25" from="-8344600" to="30094599"/>
    <trip id="114" type="passenger" depart="28828.50" from="-1138099" to="8168719"/>
    <trip id="115" type="passenger" depart="28828.75" from="-1137895" to="-1138297"/>
    <trip id="116" type="passenger" depart="28829.00" from="1137925" to="1138275"/>
    <trip id="117" type="passenger" depart="28829.25" from="-14023833" to="-1138034"/>
    <trip id="118" type="passenger" depart="28829.50" from="30101701" to="-2364195"/>
    <trip id="119" type="passenger" depart="28829.75" from="1137925" to="1138036"/>
    <trip id="120" type="passenger" depart="28830.00" from="-30118208" to="1137946"/>
    <trip id="121" type="passenger" depart="28830.25" from="10154318" to="445281"/>
    <trip id="122" type="passenger" depart="28830.50" from="-1138371" to="14023710"/>
    <trip id="123" type="passenger" depart="28830.75" from="-14036500" to="-30110515"/>
    <trip id="124" type="passenger" depart="28831.00" from="1138138" to="-30089603"/>
    <trip id="125" type="passenger" depart="28831.25" from="-30089615" to="2687536"/>
    <trip id="126" type="passenger" depart="28831.50" from="-1137883" to="-8322270"/>
    <trip id="127" type="passenger" depart="28831.75" from="9741512" to="8566546"/>
    <trip id="128" type="passenger" depart="28832.00" from="-1137884" to="-1138491"/>
    <trip id="129" type="passenger" depart="28832.25" from="-2476347" to="445003"/>
    <trip id="130" type="passenger" depart="28832.50" from="30101668" to="30104878"/>
    <trip id="131" type="passenger" depart="28832.75" from="-30094599" to="-1138138"/>
    <trip id="132" type="passenger" depart="28833.00" from="30089666" to="1138468"/>
    <trip id="133" type="passenger" depart="28833.25" from="1137976" to="8344151"/>
    <trip id="134" type="passenger" depart="28833.50" from="1138086" to="-10133851"/>
    <trip id="135" type="passenger" depart="28833.75" from="30089615" to="-30089602"/>
    <trip id="136" type="passenger" depart="28834.00" from="1138106" to="445803"/>
    <trip id="137" type="passenger" depart="28834.25" from="-1138036" to="-1138026"/>
    <trip id="138" type="passenger" depart="28834.50" from="-1137970" to="1137880"/>
    <trip id="139" type="passenger" depart="28834.75" from="-30024523" to="1138011"/>
    <trip id="140" type="passenger" depart="28835.00" from="1138415" to="-1138415"/>
    <trip id="141" type="passenger" depart="28835.25" from="1138035" to="-30024553"/>
    <trip id="142" type="passenger" depart="28835.50" from="-8322151" to="30120825"/>
    <trip id="143" type="passenger" depart="28835.75" from="30094518" to="-1137967"/>
    <trip id="144" type="passenger" depart="28836.00" from="-30148379" to="-30064599"/>
    <trip id="145" type="passenger" depart="28836.25" from="-10133742" to="30089150"/>
    <trip id="146" type="passenger" depart="28836.50" from="1138043" to="-30024536"/>
    <trip id="147" type="passenger" depart="28836.75" from="14023710" to="1137878"/>
    <trip id="148" type="passenger" depart="28837.00" from="-30151195" to="-10145060"/>
    <trip id="149" type="passenger" depart="28837.25" from="-1137890" to="30104882"/>
    <trip id="150" type="passenger" depart="28837.50" from="30110510" to="1137868"/>
    <trip id="151" type="passenger" depart="28837.75" from="30089667" to="1137943"/>
    <trip id="152" type="passenger" depart="28838.00" from="-1138077" to="-1138056"/>
    <trip id="153" type="passenger" depart="28838.25" from="-30089597" to="30111184"/>
    <trip id="154" type="passenger" depart="28838.50" from="30089549" to="30101661"/>
    <trip id="155" type="passenger" depart="28838.75" from="30104884" to="-1138468"/>
    <trip id="156" type="passenger" depart="28839.00" from="-20140025" to="-1137989"/>
    <trip id="157" type="passenger" depart="28839.25" from="30056945" to="30104884"/>
    <trip id="158" type="passenger" depart="28839.50" from="-30110510" to="1138043"/>
    <trip id="159" type="passenger" depart="28839.75" from="-1138097" to="444482"/>
    <trip id="160" type="passenger" depart="28840.00" from="30094592" to="8322180"/>
    <trip id="161" type="passenger" depart="28840.25" from="30089600" to="30104879"/>
    <trip id="162" type="passenger" depart="28840.50" from="-10280145" to="2364091"/>
    <trip id="163" type="passenger" depart="28840.75" from="-30089665" to="444568"/>
    <trip id="164" type="passenger" depart="28841.00" from="30089569" to="30101668"/>
    <trip id="165" type="passenger" depart="28841.25" from="30089600" to="-30056944"/>
    <trip id="166" type="passenger" depart="28841.50" from="30057107" to="-1138011"/>
    <trip id="167" type="passenger" depart="28841.75" from="30101644" to="30101657"/>
    <trip id="168" type="passenger" depart="28842.00" from="-1138491" to="30089667"/>
    <trip id="169" type="passenger" depart="28842.25" from="-7666513" to="-30089615"/>
    <trip id="170" type="passenger" depart="28842.50" from="30089549" to="-14023710"/>
    <trip id="171" type="passenger" depart="28842.75" from="-10279965" to="-1138342"/>
    <trip id="172" type="passenger" depart="28843.00" from="-30089658" to="30101668"/>
    <trip id="173" type="passenger" depart="28843.25" from="8238095" to="-30089149"/>
    <trip id="174" type="passenger" depart="28843.50" from="1138059" to="-30111184"/>
    <trip id="175" type="passenger" depart="28843.75" from="8344078" to="1137850"/>
    <trip id="176" type="passenger" depart="28844.00" from="5070621" to="-1138026"/>
    <trip id="177" type="passenger" depart="28844.25" from="8322117" to="-1138239"/>
    <trip id="178" type="passenger" depart="28844.50" from="8202883" to="-30024554"/>
    <trip id="179" type="passenger" depart="28844.75" from="-1137971" to="-7754013"/>
    <trip id="180" type="passenger" depart="28845.00" from="1138665" to="-30089648"/>
    <trip id="181" type="passenger" depart="28845.25" from="1137967" to="1137768"/>
    <trip id="182" type="passenger" depart="28845.50" from="-30101676" to="1137925"/>
    <trip id="183" type="passenger" depart="28845.75" from="-2364108" to="11395007"/>
    <trip id="184" type="passenger" depart="28846.00" from="-10133660" to="4121518"/>
    <trip id="185" type="passenger" depart="28846.25" from="1137772" to="14023833"/>
    <trip id="186" type="passenger" depart="28846.50" from="14023717" to="1138240"/>
    <trip id="187" type="passenger" depart="28846.75" from="-30094592" to="-1137899"/>
    <trip id="188" type="passenger" depart="28847.00" from="1138106" to="-30094513"/>
    <trip id="189" type="passenger" depart="28847.25" from="-30089609" to="30094593"/>
    <trip id="190" type="passenger" depart="28847.50" from="1138434" to="-30089603"/>
    <trip id="191" type="passenger" depart="28847.75" from="-30089600" to="-30148379"/>
    <trip id="192" type="passenger" depart="28848.00" from="-30104886" to="-30089593"/>
    <trip id="193" type="passenger" depart="28848.25" from="-1138023" to="-4030635"/>
    <trip id="194" type="passenger" depart="28848.50" from="5070771" to="1138284"/>
    <trip id="195" type="passenger" depart="28848.75" from="30106035" to="1138030"/>
    <trip id="196" type="passenger" depart="28849.00" from="-30089579" to="1137871"/>
    <trip id="197" type="passenger" depart="28849.25" from="-10133494" to="-30089559"/>
    <trip id="198" type="passenger" depart="28849.50" from="-30151589" to="1137936"/>
    <trip id="199" type="passenger" depart="28849.75" from="1138089" to="-8322777"/>
    <trip id="200" type="passenger" depart="28850.00" from="-444382" to="-1138575"/>
    <trip id="201" type="passenger" depart="28850.25" from="-8168719" to="30118195"/>
    <trip id="202" type="passenger" depart="28850.50" from="30089549" to="-1138177"/>
    <trip id="203" type="passenger" depart="28850.75" from="-1137903" to="1137772"/>
    <trip id="204" type="passenger" depart="28851.00" from="1138030" to="-30094520"/>
    <trip id="205" type="passenger" depart="28851.25" from="30089622" to="2687535"/>
    <trip id="206" type="passenger" depart="28851.50" from="1138141" to="-14023620"/>
    <trip id="207" type="passenger" depart="28851.75" from="-1138307" to="-1137753"/>
    <trip id="208" type="passenger" depart="28852.00" from="-14171668" to="-8566077"/>
    <trip id="209" type="passenger" depart="28852.25" from="30094524" to="-1137903"/>
    <trip id="210" type="passenger" depart="28852.50" from="-30111184" to="1138075"/>
    <trip id="211" type="passenger" depart="28852.75" from="-1138288" to="1138415"/>
    <trip id="212" type="passenger" depart="28853.00" from="-8322738" to="-2364108"/>
    <trip id="213" type="passenger" depart="28853.25" from="1138090" to="-10133795"/>
    <trip id="214" type="passenger" depart="28853.50" from="14171667" to="30089149"/>
    <trip id="215" type="passenger" depart="28853.75" from="-1137970" to="-5102026"/>
    <trip id="216" type="passenger" depart="28854.00" from="-1138175" to="8168653"/>
    <trip id="217" type="passenger" depart="28854.25" from="10133844" to="-1137864"/>
    <trip id="218" type="passenger" depart="28854.50" from="-20079232" to="30094593"/>
    <trip id="219" type="passenger" depart="28854.75" from="-5070771" to="30089628"/>
    <trip id="220" type="passenger" depart="28855.00" from="1138124" to="8344202"/>
    <trip id="221" type="passenger" depart="28855.25" from="1137926" to="7753896"/>
    <trip id="222" type="passenger" depart="28855.50" from="30101703" to="1138026"/>
    <trip id="223" type="passenger" depart="28855.75" from="1138434" to="10258019"/>
    <trip id="224" type="passenger" depart="28856.00" from="30089659" to="1137871"/>
    <trip id="225" type="passenger" depart="28856.25" from="30104882" to="2364275"/>
    <trip id="226" type="passenger" depart="28856.50" from="-8190967" to="-2767753"/>
    <trip id="227" type="passenger" depart="28856.75" from="-14662186" to="1138093"/>
    <trip id="228" type="passenger" depart="28857.00" from="2364635" to="1137805"/>
    <trip id="229" type="passenger" depart="28857.25" from="1138020" to="-30057107"/>
    <trip id="230" type="passenger" depart="28857.50" from="-1137892" to="-30089557"/>
    <trip id="231" type="passenger" depart="28857.75" from="-2767753" to="-30089663"/>
    <trip id="232" type="passenger" depart="28858.00" from="1137782" to="-1138082"/>
    <trip id="233" type="passenger" depart="28858.25" from="-14023709" to="1138401"/>
    <trip id="234" type="passenger" depart="28858.50" from="1138342" to="-1137890"/>
    <trip id="235" type="passenger" depart="28858.75" from="-30110512" to="1137864"/>
    <trip id="236" type="passenger" depart="28859.00" from="-30111185" to="-1138434"/>
    <trip id="237" type="passenger" depart="28859.25" from="-30120824" to="30120824"/>
    <trip id="238" type="passenger" depart="28859.50" from="1137901" to="1138403"/>
    <trip id="239" type="passenger" depart="28859.75" from="30094569" to="30057003"/>
    <trip id="240" type="passenger" depart="28860.00" from="-30101668" to="-10133844"/>
    <trip id="241" type="passenger" depart="28860.25" from="-30094534" to="2689153"/>
    <trip id="242" type="passenger" depart="28860.50" from="30094547" to="7754671"/>
    <trip id="243" type="passenger" depart="28860.75" from="-30118208" to="2364668"/>
    <trip id="244" type="passenger" depart="28861.00" from="1137816" to="1138002"/>
    <trip id="245" type="passenger" depart="28861.25" from="-1138490" to="-12174201"/>
    <trip id="246" type="passenger" depart="28861.50" from="-4030635" to="-1137792"/>
    <trip id="247" type="passenger" depart="28861.75" from="-30089671" to="1138297"/>
    <trip id="248" type="passenger" depart="28862.00" from="-30104888" to="-1138167"/>
    <trip id="249" type="passenger" depart="28862.25" from="-7754671" to="-1138059"/>
    <trip id="250" type="passenger" depart="28862.50" from="1138012" to="-1137782"/>
    <trip id="251" type="passenger" depart="28862.75" from="-30101705" to="1137895"/>
    <trip id="252" type="passenger" depart="28863.00" from="-1137761" to="1138100"/>
    <trip id="253" type="passenger" depart="28863.25" from="-1138043" to="-8322738"/>
    <trip id="254" type="passenger" depart="28863.50" from="-1137846" to="-30101703"/>
    <trip id="255" type="passenger" depart="28863.75" from="-1138415" to="-30089680"/>
    <trip id="256" type="passenger" depart="28864.00" from="2364217" to="-30101703"/>
    <trip id="257" type="passenger" depart="28864.25" from="14661964" to="30094521"/>
    <trip id="258" type="passenger" depart="28864.50" from="-2364091" to="-1137926"/>
    <trip id="259" type="passenger" depart="28864.75" from="-10257961" to="1137855"/>
    <trip id="260" type="passenger" depart="28865.00" from="9741741" to="-30094590"/>
    <trip id="261" type="passenger" depart="28865.25" from="1138077" to="30089562"/>
    <trip id="262" type="passenger" depart="28865.50" from="1138082" to="2689164"/>
    <trip id="263" type="passenger" depart="28865.75" from="7753973" to="-1138388"/>
    <trip id="264" type="passenger" depart="28866.00" from="-10257988" to="-1138114"/>
    <trip id="265" type="passenger" depart="28866.25" from="-1138020" to="1138239"/>
    <trip id="266" type="passenger" depart="28866.50" from="1137868" to="-11541937"/>
    <trip id="267" type="passenger" depart="28866.75" from="1138297" to="30057120"/>
    <trip id="268" type="passenger" depart="28867.00" from="-1138138" to="1138013"/>
    <trip id="269" type="passenger" depart="28867.25" from="14036500" to="-1138023"/>
    <trip id="270" type="passenger" depart="28867.50" from="30089628" to="8202073"/>
    <trip id="271" type="passenger" depart="28867.75" from="-1137971" to="-1137771"/>
    <trip id="272" type="passenger" depart="28868.00" from="-30089603" to="1138284"/>
    <trip id="273" type="passenger" depart="28868.25" from="8192022" to="-30110517"/>
    <trip id="274" type="passenger" depart="28868.50" from="1138402" to="-1137910"/>
    <trip id="275" type="passenger" depart="28868.75" from="1138238" to="1138062"/>
    <trip id="276" type="passenger" depart="28869.00" from="-1137956" to="30089152"/>
    <trip id="277" type="passenger" depart="28869.25" from="30094528" to="1137989"/>
    <trip id="278" type="passenger" depart="28869.50" from="-1138012" to="8322777"/>
    <trip id="279" type="passenger" depart="28869.75" from="30056967" to="-30094579"/>
    <trip id="280" type="passenger" depart="28870.00" from="-30151195" to="-30101671"/>
    <trip id="281" type="passenger" depart="28870.25" from="-8566492" to="-30094557"/>
    <trip id="282" type="passenger" depart="28870.50" from="30094524" to="30089680"/>
    <trip id="283" type="passenger" depart="28870.75" from="-1137967" to="8168719"/>
    <trip id="284" type="passenger" depart="28871.00" from="1138036" to="30094516"/>
    <trip id="285" type="passenger" depart="28871.25" from="1138360" to="-7754671"/>
    <trip id="286" type="passenger" depart="28871.50" from="13974078" to="8202870"/>
    <trip id="287" type="passenger" depart="28871.75" from="-2689164" to="30089648"/>
    <trip id="288" type="passenger" depart="28872.00" from="1137772" to="10133494"/>
    <trip id="289" type="passenger" depart="28872.25" from="-4030635" to="14661964"/>
    <trip id="290" type="passenger" depart="28872.50" from="-2687536" to="30094598"/>
    <trip id="291" type="passenger" depart="28872.75" from="30089659" to="-1137943"/>
    <trip id="292" type="passenger" depart="28873.00" from="30101670" to="-2364108"/>
    <trip id="293" type="passenger" depart="28873.25" from="-7753973" to="1138020"/>
    <trip id="294" type="passenger" depart="28873.50" from="-30101665" to="-1137792"/>
    <trip id="295" type="passenger" depart="28873.75" from="30094528" to="-1138275"/>
    <trip id="296" type="passenger" depart="28874.00" from="-1138415" to="30089614"/>
    <trip id="297" type="passenger" depart="28874.25" from="-30089683" to="30104879"/>
    <trip id="298" type="passenger" depart="28874.50" from="1138298" to="-30057120"/>
    <trip id="299" type="passenger" depart="28874.75" from="-10144696" to="7667127"/>
    <trip id="300" type="passenger" depart="28875.00" from="-1137909" to="14023833"/>
    <trip id="301" type="passenger" depart="28875.25" from="-8322151" to="30024554"/>
    <trip id="302" type="passenger" depart="28875.50" from="1138238" to="1138106"/>
    <trip id="303" type="passenger" depart="28875.75" from="-8322270" to="30089600"/>
    <trip id="304" type="passenger" depart="28876.00" from="-1137926" to="-14023514"/>
    <trip id="305" type="passenger" depart="28876.25" from="1138239" to="-30089622"/>
    <trip id="306" type="passenger" depart="28876.50" from="1137893" to="-8566018"/>
    <trip id="307" type="passenger" depart="28876.75" from="10257988" to="-5102026"/>
    <trip id="308" type="passenger" depart="28877.00" from="14023834" to="-30094513"/>
    <trip id="309" type="passenger" depart="28877.25" from="1138307" to="-30056978"/>
    <trip id="310" type="passenger" depart="28877.50" from="-20140051" to="-1138034"/>
    <trip id="311" type="passenger" depart="28877.75" from="-1138284" to="-1138030"/>
    <trip id="312" type="passenger" depart="28878.00" from="1137753" to="30056967"/>
    <trip id="313" type="passenger" depart="28878.25" from="-1138239" to="-11395007"/>
    <trip id="314" type="passenger" depart="28878.50" from="-8238095" to="14047366"/>
    <trip id="315" type="passenger" depart="28878.75" from="8322738" to="1137816"/>
    <trip id="316" type="passenger" depart="28879.00" from="-30057120" to="-1137983"/>
    <trip id="317" type="passenger" depart="28879.25" from="-1138288" to="-14023710"/>
    <trip id="318" type="passenger" depart="28879.50" from="-1138201" to="-10257866"/>
    <trip id="319" type="passenger" depart="28879.75" from="10279965" to="-30057107"/>
    <trip id="320" type="passenger" depart="28880.00" from="8322640" to="1137880"/>
    <trip id="321" type="passenger" depart="28880.25" from="1138284" to="-1138052"/>
    <trip id="322" type="passenger" depart="28880.50" from="30094598" to="10133814"/>
    <trip id="323" type="passenger" depart="28880.75" from="30101646" to="1137923"/>
    <trip id="324" type="passenger" depart="28881.00" from="-7785487" to="-8168719"/>
    <trip id="325" type="passenger" depart="28881.25" from="-1138238" to="-1137867"/>
    <trip id="326" type="passenger" depart="28881.50" from="5102026" to="-8566503"/>
    <trip id="327" type="passenger" depart="28881.75" from="30089640" to="-30111185"/>