<?xml version="1.0" ?>
<types>
  <type id="204001" priority="1" numLanes="1" speed="5.56" oneway="false" description="Trail"/>
  <type id="201101" priority="4" numLanes="1" speed="25.0" oneway="true" description="Expressway Ramp"/>
  <type id="201400" priority="3" numLanes="2" speed="12.5" oneway="false" description="Collector"/>
  <type id="201500" priority="2" numLanes="2" speed="12.5" oneway="false" description="Local"/>
  <type id="201100" priority="5" numLanes="4" speed="27.78" oneway="true" description="Expressway"/>
  <type id="201700" priority="1" numLanes="1" speed="4.17" oneway="false" description="Laneway"/>
  <type id="201200" priority="4" numLanes="4" speed="13.89" oneway="false" description="Major Arterial"/>
  <type id="201300" priority="3" numLanes="2" speed="12.5" oneway="false" description="Minor Arterial"/>
  <type id="201201" priority="4" numLanes="1" speed="12.5" oneway="true" description="Major Arterial Ramp"/>
  <type id="201803" priority="1" numLanes="1" speed="5.56" oneway="false" description="Access Road"/>
  <type id="201801" priority="2" numLanes="1" speed="11.11" oneway="false" description="Busway"/>
  <type id="201601" priority="4" numLanes="1" speed="13.89" oneway="true" description="Other Ramp"/>
  <type id="201401" priority="3" numLanes="1" speed="11.11" oneway="true" description="Collector Ramp"/>
  <type id="201301" priority="3" numLanes="1" speed="11.11" oneway="true" description="Minor Arterial Ramp"/>
</types>
