<?xml version="1.0" encoding="UTF-8"?>

<!-- generated on 2024-08-21 21:04:57.277974 by gtfs2pt.py UNKNOWN
<configuration>
    <gtfs value="data/raw/ttc-routes-and-schedules/TTC Routes and Schedules Data.zip"/>
    <date value="20240813"/>
    <modes value="bus"/>
    <vtype-output value="data/sumo_networks/lawrence_park_south/lawrence_park_south_public_transport_vtype.rou.xml"/>
    <begin value="28800.0"/>
    <end value="34200.0"/>
    <network value="data/sumo_networks/lawrence_park_south/lawrence_park_south_arterial.net.xml"/>
    <route-output value="data/sumo_networks/lawrence_park_south/lawrence_park_south_public_transport.rou.xml"/>
    <additional-output value="data/sumo_networks/lawrence_park_south/lawrence_park_south_gtfs_stops_routes.add.xml"/>
</configuration>
-->

<routes xmlns:xsi="http://www.w3.org/2001/XMLSchema-instance" xsi:noNamespaceSchemaLocation="http://sumo.dlr.de/xsd/routes_file.xsd">
    <route id="47508205" edges="-444568 -1137885 -5102026 -5070621 -1137850 -9741741 -9741512 -9741291 10133844 10133851 10133660 10133669 10144696 12174201 1137782 10133795 10133781 10145060 10133742 1137753 443954">
        <stop busStop="47508205.2" duration="10" until="0"/> <!-- Avenue Rd at Douglas Ave -->
        <stop busStop="47508205.3" duration="10" until="46"/> <!-- Lawrence Ave West at Avenue Rd East Side -->
        <stop busStop="47508205.4" duration="10" until="78"/> <!-- Lawrence Ave West at Rosewell Ave East Side -->
        <stop busStop="47508205.5" duration="10" until="109"/> <!-- Lawrence Ave West at Chatsworth Dr -->
        <stop busStop="47508205.6" duration="10" until="151"/> <!-- Lawrence Ave West at Greer Rd -->
        <stop busStop="47508205.7" duration="10" until="206"/> <!-- Lawrence Ave West at Duplex Ave -->
        <stop busStop="47508205.8" duration="10" until="242"/> <!-- Lawrence Ave West at Lorindale Ave East Side -->
        <stop busStop="47508205.9" duration="10" until="280"/> <!-- Lawrence Ave East at Yonge St East Side -->
        <stop busStop="47508205.10" duration="10" until="330"/> <!-- Lawrence Ave East at Weybourne Cres East Side -->
        <stop busStop="47508205.11" duration="10" until="358"/> <!-- Lawrence Ave East at Mt Pleasant Rd -->
        <stop busStop="47508205.12" duration="10" until="391"/> <!-- Lawrence Ave East at Dinnick Cres East Side -->
        <stop busStop="47508205.13" duration="10" until="417"/> <!-- Lawrence Ave East at Ronan Ave -->
        <stop busStop="47508205.14" duration="10" until="450"/> <!-- Lawrence Ave East at Wanless Cres (West) -->
        <stop busStop="47508205.15" duration="10" until="493"/> <!-- Lawrence Ave East at Wanless Cres (East) -->
    </route>
    <route id="47508359" edges="-443954 -1137753 -10133742 -10145060 -10133781 -10133795 -1137782 -12174201 -10144696 -10133669 -10133660 -10133851 -10133844 9741291 9741512 9741741 1137850 5070621 5102026 1137885">
        <stop busStop="47508359.0" duration="10" until="0"/> <!-- Lawrence Ave East at Wanless Cres (East) West Side -->
        <stop busStop="47508359.1" duration="10" until="31"/> <!-- Lawrence Ave East at Wanless Cres (West) -->
        <stop busStop="47508359.2" duration="10" until="59"/> <!-- Lawrence Ave East at Ronan Ave -->
        <stop busStop="47508359.3" duration="10" until="94"/> <!-- Lawrence Ave East at Mt Pleasant Rd -->
        <stop busStop="47508359.4" duration="10" until="130"/> <!-- Lawrence Ave East at Cardinal Pl -->
        <stop busStop="47508359.5" duration="10" until="177"/> <!-- Lawrence Ave at Yonge St - Lawrence Station -->
        <stop busStop="47508359.6" duration="10" until="207"/> <!-- Lawrence Ave West at Lorindale Ave -->
        <stop busStop="47508359.7" duration="10" until="242"/> <!-- Lawrence Ave West at Jedburgh Rd -->
        <stop busStop="47508359.8" duration="10" until="295"/> <!-- Lawrence Ave West at Greer Rd -->
        <stop busStop="47508359.9" duration="10" until="360"/> <!-- Lawrence Ave West at Elm Rd West Side -->
    </route>
    <route id="47508360" edges="-443954 -1137753 -10133742 -10145060 -10133781 -10133795 -1137782 -12174201 -10144696 -10133669 -10133660 -10133851 -10133844 9741291 9741512 9741741 1137850 5070621 5102026 1137885 444568">
        <stop busStop="47508359.0" duration="10" until="0"/> <!-- Lawrence Ave East at Wanless Cres (East) West Side -->
        <stop busStop="47508359.1" duration="10" until="31"/> <!-- Lawrence Ave East at Wanless Cres (West) -->
        <stop busStop="47508359.2" duration="10" until="59"/> <!-- Lawrence Ave East at Ronan Ave -->
        <stop busStop="47508359.3" duration="10" until="94"/> <!-- Lawrence Ave East at Mt Pleasant Rd -->
        <stop busStop="47508359.4" duration="10" until="130"/> <!-- Lawrence Ave East at Cardinal Pl -->
        <stop busStop="47508359.5" duration="10" until="177"/> <!-- Lawrence Ave at Yonge St - Lawrence Station -->
        <stop busStop="47508359.6" duration="10" until="207"/> <!-- Lawrence Ave West at Lorindale Ave -->
        <stop busStop="47508359.7" duration="10" until="242"/> <!-- Lawrence Ave West at Jedburgh Rd -->
        <stop busStop="47508359.8" duration="10" until="295"/> <!-- Lawrence Ave West at Greer Rd -->
        <stop busStop="47508359.9" duration="10" until="360"/> <!-- Lawrence Ave West at Elm Rd West Side -->
        <stop busStop="47508360.10" duration="10" until="409"/> <!-- Lawrence Ave West at Avenue Rd -->
        <stop busStop="47508360.11" duration="10" until="455"/> <!-- Avenue Rd at Douglas Ave North Side -->
    </route>
    <route id="47512381" edges="8166365">
        <stop busStop="47512381.2" duration="10" until="0"/> <!-- Chaplin Cres at Eglinton Ave West -->
    </route>
    <route id="47512414" edges="-14023514 14023514 1138575 8166365 -8166365 8166365">
        <stop busStop="47512414.0" duration="10" until="0"/> <!-- Chaplin Cres at Russell Hill Rd West Side -->
        <stop busStop="47512414.1" duration="10" until="23"/> <!-- Chaplin Cres at Eglinton Ave West -->
        <stop busStop="47512381.2" duration="10" until="68"/> <!-- Chaplin Cres at Eglinton Ave West North Side -->
    </route>
    <route id="47512994" edges="-444568 -1137885 -5102026 -5070621 -1137850 -9741741 -9741512 -9741291 10133844 10133851 10133660 10133669 10144696 12174201 1137782 10133795 10133781 10145060 10133742 1137753 443954">
        <stop busStop="47508205.2" duration="10" until="0"/> <!-- Avenue Rd at Douglas Ave -->
        <stop busStop="47508205.3" duration="10" until="71"/> <!-- Lawrence Ave West at Avenue Rd East Side -->
        <stop busStop="47508205.4" duration="10" until="119"/> <!-- Lawrence Ave West at Rosewell Ave East Side -->
        <stop busStop="47508205.5" duration="10" until="167"/> <!-- Lawrence Ave West at Chatsworth Dr -->
        <stop busStop="47508205.6" duration="10" until="232"/> <!-- Lawrence Ave West at Greer Rd -->
        <stop busStop="47508205.7" duration="10" until="315"/> <!-- Lawrence Ave West at Duplex Ave -->
        <stop busStop="47508205.8" duration="10" until="370"/> <!-- Lawrence Ave West at Lorindale Ave East Side -->
        <stop busStop="47508205.9" duration="10" until="422"/> <!-- Lawrence Ave East at Yonge St East Side -->
        <stop busStop="47508205.10" duration="10" until="480"/> <!-- Lawrence Ave East at Weybourne Cres East Side -->
        <stop busStop="47508205.11" duration="10" until="512"/> <!-- Lawrence Ave East at Mt Pleasant Rd -->
        <stop busStop="47508205.12" duration="10" until="551"/> <!-- Lawrence Ave East at Dinnick Cres East Side -->
        <stop busStop="47508205.13" duration="10" until="582"/> <!-- Lawrence Ave East at Ronan Ave -->
        <stop busStop="47508205.14" duration="10" until="621"/> <!-- Lawrence Ave East at Wanless Cres (West) -->
        <stop busStop="47508205.15" duration="10" until="671"/> <!-- Lawrence Ave East at Wanless Cres (East) -->
    </route>
    <route id="47512996" edges="10133844 10133851 10133660 10133669 10144696 12174201 1137782 10133795 10133781 10145060 10133742 1137753 443954">
        <stop busStop="47508205.9" duration="10" until="0"/> <!-- Lawrence Ave East at Yonge St East Side -->
        <stop busStop="47508205.10" duration="10" until="58"/> <!-- Lawrence Ave East at Weybourne Cres East Side -->
        <stop busStop="47508205.11" duration="10" until="90"/> <!-- Lawrence Ave East at Mt Pleasant Rd -->
        <stop busStop="47508205.12" duration="10" until="129"/> <!-- Lawrence Ave East at Dinnick Cres East Side -->
        <stop busStop="47508205.13" duration="10" until="160"/> <!-- Lawrence Ave East at Ronan Ave -->
        <stop busStop="47508205.14" duration="10" until="199"/> <!-- Lawrence Ave East at Wanless Cres (West) -->
        <stop busStop="47508205.15" duration="10" until="249"/> <!-- Lawrence Ave East at Wanless Cres (East) -->
    </route>
    <route id="47513029" edges="-444568 -1137885 -5102026 -5070621 -1137850 -9741741 -9741512">
        <stop busStop="47508205.2" duration="10" until="0"/> <!-- Avenue Rd at Douglas Ave -->
        <stop busStop="47508205.3" duration="10" until="71"/> <!-- Lawrence Ave West at Avenue Rd East Side -->
        <stop busStop="47508205.4" duration="10" until="119"/> <!-- Lawrence Ave West at Rosewell Ave East Side -->
        <stop busStop="47508205.5" duration="10" until="167"/> <!-- Lawrence Ave West at Chatsworth Dr -->
        <stop busStop="47508205.6" duration="10" until="232"/> <!-- Lawrence Ave West at Greer Rd -->
        <stop busStop="47508205.7" duration="10" until="315"/> <!-- Lawrence Ave West at Duplex Ave -->
        <stop busStop="47508205.8" duration="10" until="370"/> <!-- Lawrence Ave West at Lorindale Ave East Side -->
    </route>
    <route id="47513043" edges="-443954">
        <stop busStop="47508359.0" duration="10" until="0"/> <!-- Lawrence Ave East at Wanless Cres (East) West Side -->
    </route>
    <route id="47513044" edges="-443954 -1137753 -10133742 -10145060 -10133781 -10133795 -1137782 -12174201 -10144696 -10133669 -10133660 -10133851 -10133844 9741291 9741512 9741741 1137850 5070621 5102026 1137885 444568">
        <stop busStop="47508359.0" duration="10" until="0"/> <!-- Lawrence Ave East at Wanless Cres (East) West Side -->
        <stop busStop="47508359.1" duration="10" until="45"/> <!-- Lawrence Ave East at Wanless Cres (West) -->
        <stop busStop="47508359.2" duration="10" until="85"/> <!-- Lawrence Ave East at Ronan Ave -->
        <stop busStop="47508359.3" duration="10" until="134"/> <!-- Lawrence Ave East at Mt Pleasant Rd -->
        <stop busStop="47508359.4" duration="10" until="186"/> <!-- Lawrence Ave East at Cardinal Pl -->
        <stop busStop="47508359.5" duration="10" until="253"/> <!-- Lawrence Ave at Yonge St - Lawrence Station -->
        <stop busStop="47508359.6" duration="10" until="282"/> <!-- Lawrence Ave West at Lorindale Ave -->
        <stop busStop="47508359.7" duration="10" until="312"/> <!-- Lawrence Ave West at Jedburgh Rd -->
        <stop busStop="47508359.8" duration="10" until="358"/> <!-- Lawrence Ave West at Greer Rd -->
        <stop busStop="47508359.9" duration="10" until="414"/> <!-- Lawrence Ave West at Elm Rd West Side -->
        <stop busStop="47508360.10" duration="10" until="456"/> <!-- Lawrence Ave West at Avenue Rd -->
        <stop busStop="47508360.11" duration="10" until="495"/> <!-- Avenue Rd at Douglas Ave North Side -->
    </route>
    <route id="47517350" edges="-8166365 -1138575 -8168719 -11901951 -8168672 -8168653 -8202870 -8192022 -8192164 -8202883 -8202073 -8205774">
        <stop busStop="47517350.1" duration="10" until="0"/> <!-- Eglinton Ave West at Chaplin Cres East Side -->
        <stop busStop="47517350.2" duration="10" until="73"/> <!-- Eglinton Ave West at Tarlton Rd -->
        <stop busStop="47517350.3" duration="10" until="121"/> <!-- Eglinton Ave West at Elmsthorpe Ave -->
        <stop busStop="47517350.4" duration="10" until="195"/> <!-- Eglinton Ave West at Avenue Rd East Side -->
        <stop busStop="47517350.5" duration="10" until="271"/> <!-- Eglinton Ave West at Oriole Pkwy East Side -->
    </route>
    <route id="47517373" edges="-8166365 -1138575 -8168719 -11901951 -8168672 -8168653 -8202870 -8192022 -8192164 -8202883 -8202073 -8205774">
        <stop busStop="47517350.1" duration="10" until="0"/> <!-- Eglinton Ave West at Chaplin Cres East Side -->
        <stop busStop="47517350.2" duration="10" until="73"/> <!-- Eglinton Ave West at Tarlton Rd -->
        <stop busStop="47517350.3" duration="10" until="121"/> <!-- Eglinton Ave West at Elmsthorpe Ave -->
        <stop busStop="47517350.4" duration="10" until="194"/> <!-- Eglinton Ave West at Avenue Rd East Side -->
        <stop busStop="47517350.5" duration="10" until="266"/> <!-- Eglinton Ave West at Oriole Pkwy East Side -->
    </route>
    <route id="47517374" edges="-8166365 -1138575 -8168719 -11901951 -8168672 -8168653 -8202870 -8192022 -8192164 -8202883 -8202073 -8205774">
        <stop busStop="47517350.1" duration="10" until="0"/> <!-- Eglinton Ave West at Chaplin Cres East Side -->
        <stop busStop="47517350.2" duration="10" until="73"/> <!-- Eglinton Ave West at Tarlton Rd -->
        <stop busStop="47517350.3" duration="10" until="121"/> <!-- Eglinton Ave West at Elmsthorpe Ave -->
        <stop busStop="47517350.4" duration="10" until="194"/> <!-- Eglinton Ave West at Avenue Rd East Side -->
        <stop busStop="47517350.5" duration="10" until="266"/> <!-- Eglinton Ave West at Oriole Pkwy East Side -->
    </route>
    <route id="47517390" edges="-8192164 -8202883 -8202073 -8205774">
        <stop busStop="47517350.3" duration="10" until="0"/> <!-- Eglinton Ave West at Elmsthorpe Ave -->
        <stop busStop="47517350.4" duration="10" until="74"/> <!-- Eglinton Ave West at Avenue Rd East Side -->
        <stop busStop="47517350.5" duration="10" until="150"/> <!-- Eglinton Ave West at Oriole Pkwy East Side -->
    </route>
    <route id="47517433" edges="-8166365 -1138575 -8168719 -11901951 -8168672 -8168653 -8202870 -8192022 -8192164 -8202883 -8202073 -8205774">
        <stop busStop="47517350.1" duration="10" until="0"/> <!-- Eglinton Ave West at Chaplin Cres East Side -->
        <stop busStop="47517350.2" duration="10" until="73"/> <!-- Eglinton Ave West at Tarlton Rd -->
        <stop busStop="47517350.3" duration="10" until="121"/> <!-- Eglinton Ave West at Elmsthorpe Ave -->
        <stop busStop="47517350.4" duration="10" until="195"/> <!-- Eglinton Ave West at Avenue Rd East Side -->
    </route>
    <route id="47517672" edges="8202073 8202883 8192164 8192022 8202870 8168653 8168672 11901951 8168719 1138575 8166365">
        <stop busStop="47517672.0" duration="10" until="0"/> <!-- Eglinton Ave West at Avenue Rd West Side -->
        <stop busStop="47517672.1" duration="10" until="16"/> <!-- Eglinton Ave West at Braemar Ave West Side -->
        <stop busStop="47517672.2" duration="10" until="47"/> <!-- Eglinton Ave West at Castle Knock Rd -->
        <stop busStop="47517672.3" duration="10" until="95"/> <!-- Eglinton Ave West at Heddington Ave -->
        <stop busStop="47517672.4" duration="10" until="161"/> <!-- Eglinton Ave West at Gilgorm Rd -->
        <stop busStop="47512381.2" duration="10" until="203"/> <!-- Eglinton Ave West at Spadina Rd -->
    </route>
    <route id="47517678" edges="-1138402 1138402 -8203281 8202073 8202883 8192164 8192022 8202870 8168653 8168672 11901951 8168719 1138575 8166365">
        <stop busStop="47517678.4" duration="10" until="0"/> <!-- Eglinton Ave West at Oriole Pkwy -->
        <stop busStop="47517672.0" duration="10" until="78"/> <!-- Eglinton Ave West at Avenue Rd West Side -->
        <stop busStop="47517672.1" duration="10" until="94"/> <!-- Eglinton Ave West at Braemar Ave West Side -->
        <stop busStop="47517672.2" duration="10" until="125"/> <!-- Eglinton Ave West at Castle Knock Rd -->
        <stop busStop="47517672.3" duration="10" until="173"/> <!-- Eglinton Ave West at Heddington Ave -->
        <stop busStop="47517672.4" duration="10" until="239"/> <!-- Eglinton Ave West at Gilgorm Rd -->
        <stop busStop="47512381.2" duration="10" until="281"/> <!-- Eglinton Ave West at Spadina Rd -->
    </route>
    <route id="47517709" edges="-1138402 1138402 -8203281 8202073 8202883 8192164 8192022 8202870 8168653 8168672 11901951 8168719 1138575 8166365">
        <stop busStop="47517678.4" duration="10" until="0"/> <!-- Eglinton Ave West at Oriole Pkwy -->
        <stop busStop="47517672.0" duration="10" until="74"/> <!-- Eglinton Ave West at Avenue Rd West Side -->
        <stop busStop="47517672.1" duration="10" until="90"/> <!-- Eglinton Ave West at Braemar Ave West Side -->
        <stop busStop="47517672.2" duration="10" until="121"/> <!-- Eglinton Ave West at Castle Knock Rd -->
        <stop busStop="47517672.3" duration="10" until="169"/> <!-- Eglinton Ave West at Heddington Ave -->
        <stop busStop="47517672.4" duration="10" until="235"/> <!-- Eglinton Ave West at Gilgorm Rd -->
        <stop busStop="47512381.2" duration="10" until="277"/> <!-- Eglinton Ave West at Spadina Rd -->
    </route>
    <route id="47517720" edges="-1138402 1138402 -8203281 8202073 8202883 8192164">
        <stop busStop="47517678.4" duration="10" until="0"/> <!-- Eglinton Ave West at Oriole Pkwy -->
        <stop busStop="47517672.0" duration="10" until="74"/> <!-- Eglinton Ave West at Avenue Rd West Side -->
        <stop busStop="47517672.1" duration="10" until="90"/> <!-- Eglinton Ave West at Braemar Ave West Side -->
        <stop busStop="47517672.2" duration="10" until="121"/> <!-- Eglinton Ave West at Castle Knock Rd -->
    </route>
    <route id="47518109" edges="8166365">
        <stop busStop="47512381.2" duration="10" until="0"/> <!-- Chaplin Cres at Eglinton Ave West -->
        <stop busStop="47518109.4" duration="10" until="59"/> <!-- Spadina Rd at Eglinton Ave West South Side -->
    </route>
    <route id="47527620" edges="-444568 -8566546 -14662186 8322777 8322738 8344078 444986 -444986 -8344078 -8322738 -8322719 -8322761 -30151588 -30101704 -30101703 -1138071 -1138082 -1138099 -8322270 -8322180 -8322117 -4030552 -1138254 -1138284 1138306 -1138342 -1138360 -1138388 -8205745 -1138403 -8203281 -8205774">
        <stop busStop="47508205.2" duration="10" until="0"/> <!-- Avenue Rd at Lawrence Ave West South Side -->
        <stop busStop="47527620.3" duration="10" until="36"/> <!-- Opposite 1451 Avenue Rd - Havergal College -->
        <stop busStop="47527620.4" duration="10" until="86"/> <!-- Avenue Rd at Otter Cres -->
        <stop busStop="47527620.5" duration="10" until="120"/> <!-- Avenue Rd at Glengrove Ave West -->
        <stop busStop="47527620.6" duration="10" until="149"/> <!-- Avenue Rd at Glencairn Ave -->
        <stop busStop="47527620.7" duration="10" until="197"/> <!-- Avenue Rd at Lytton Blvd -->
        <stop busStop="47527620.8" duration="10" until="240"/> <!-- Avenue Rd at Hillhurst Blvd -->
        <stop busStop="47527620.9" duration="10" until="282"/> <!-- Avenue Rd at St Clements Ave -->
        <stop busStop="47527620.10" duration="10" until="331"/> <!-- Avenue Rd at Roselawn Ave South Side -->
        <stop busStop="47517350.4" duration="10" until="436"/> <!-- Eglinton Ave West at Avenue Rd East Side -->
        <stop busStop="47517350.5" duration="10" until="478"/> <!-- Eglinton Ave West at Oriole Pkwy East Side -->
    </route>
    <route id="47527621" edges="-8205774">
        <stop busStop="47517350.4" duration="10" until="0"/> <!-- Eglinton Ave West at Avenue Rd East Side -->
        <stop busStop="47517350.5" duration="10" until="42"/> <!-- Eglinton Ave West at Oriole Pkwy East Side -->
    </route>
    <route id="47527627" edges="-444568 -1137885 -5102026 -5070621 -1137850 -9741741 -9741512 -9741291 10133844 10133851 10133660 10133669 10144696 12174201">
        <stop busStop="47508205.2" duration="10" until="0"/> <!-- Lawrence Ave West at Avenue Rd -->
        <stop busStop="47508205.4" duration="10" until="39"/> <!-- Lawrence Ave West at Rosewell Ave East Side -->
        <stop busStop="47508205.5" duration="10" until="67"/> <!-- Lawrence Ave West at Chatsworth Dr -->
        <stop busStop="47508205.6" duration="10" until="104"/> <!-- Lawrence Ave West at Greer Rd -->
        <stop busStop="47508205.7" duration="10" until="151"/> <!-- Lawrence Ave West at Duplex Ave -->
        <stop busStop="47508205.8" duration="10" until="182"/> <!-- Lawrence Ave West at Lorindale Ave East Side -->
        <stop busStop="47508205.9" duration="10" until="216"/> <!-- Lawrence Ave East at Yonge St East Side -->
        <stop busStop="47508205.10" duration="10" until="274"/> <!-- Lawrence Ave East at Weybourne Cres East Side -->
        <stop busStop="47508205.11" duration="10" until="307"/> <!-- Lawrence Ave East at Mt Pleasant Rd -->
    </route>
    <route id="47527628" edges="-444568 -1137885 -5102026 -5070621 -1137850 -9741741 -9741512 -9741291 10133844 10133851 10133660 10133669 10144696 12174201 1137782 10133795 10133781 10145060 10133742 1137753 443954">
        <stop busStop="47508205.2" duration="10" until="0"/> <!-- Lawrence Ave West at Avenue Rd -->
        <stop busStop="47508205.4" duration="10" until="39"/> <!-- Lawrence Ave West at Rosewell Ave East Side -->
        <stop busStop="47508205.5" duration="10" until="67"/> <!-- Lawrence Ave West at Chatsworth Dr -->
        <stop busStop="47508205.6" duration="10" until="104"/> <!-- Lawrence Ave West at Greer Rd -->
        <stop busStop="47508205.7" duration="10" until="151"/> <!-- Lawrence Ave West at Duplex Ave -->
        <stop busStop="47508205.8" duration="10" until="182"/> <!-- Lawrence Ave West at Lorindale Ave East Side -->
        <stop busStop="47508205.9" duration="10" until="216"/> <!-- Lawrence Ave East at Yonge St East Side -->
        <stop busStop="47508205.10" duration="10" until="274"/> <!-- Lawrence Ave East at Weybourne Cres East Side -->
        <stop busStop="47508205.11" duration="10" until="307"/> <!-- Lawrence Ave East at Mt Pleasant Rd -->
        <stop busStop="47508205.12" duration="10" until="346"/> <!-- Lawrence Ave East at Dinnick Cres East Side -->
        <stop busStop="47508205.13" duration="10" until="377"/> <!-- Lawrence Ave East at Ronan Ave -->
        <stop busStop="47508205.14" duration="10" until="416"/> <!-- Lawrence Ave East at Wanless Cres (West) -->
        <stop busStop="47508205.15" duration="10" until="466"/> <!-- Lawrence Ave East at Wanless Cres (East) -->
    </route>
    <route id="47527645" edges="-444568 -8566546 -14662186 8322777 8322738 8344078 444986 -444986">
        <stop busStop="47508205.2" duration="10" until="0"/> <!-- Avenue Rd at Lawrence Ave West South Side -->
        <stop busStop="47527620.3" duration="10" until="33"/> <!-- Opposite 1451 Avenue Rd - Havergal College -->
    </route>
    <route id="47527648" edges="-444568 -8566546 -14662186 8322777 8322738 8344078 444986 -444986 -8344078 -8322738 -8322719 -8322761 -30151588 -30101704 -30101703 -1138071 -1138082 -1138099 -8322270 -8322180 -8322117 -4030552 -1138254 -1138284 1138306 -1138342 -1138360 -1138388 -8205745 -1138403 -8203281 -8205774">
        <stop busStop="47508205.2" duration="10" until="0"/> <!-- Avenue Rd at Lawrence Ave West South Side -->
        <stop busStop="47527620.3" duration="10" until="36"/> <!-- Opposite 1451 Avenue Rd - Havergal College -->
        <stop busStop="47527620.4" duration="10" until="86"/> <!-- Avenue Rd at Otter Cres -->
        <stop busStop="47527620.5" duration="10" until="120"/> <!-- Avenue Rd at Glengrove Ave West -->
        <stop busStop="47527620.6" duration="10" until="149"/> <!-- Avenue Rd at Glencairn Ave -->
        <stop busStop="47527620.7" duration="10" until="197"/> <!-- Avenue Rd at Lytton Blvd -->
        <stop busStop="47527620.8" duration="10" until="240"/> <!-- Avenue Rd at Hillhurst Blvd -->
        <stop busStop="47527620.9" duration="10" until="282"/> <!-- Avenue Rd at St Clements Ave -->
        <stop busStop="47527620.10" duration="10" until="331"/> <!-- Avenue Rd at Roselawn Ave South Side -->
        <stop busStop="47517350.4" duration="10" until="436"/> <!-- Eglinton Ave West at Avenue Rd East Side -->
        <stop busStop="47517350.5" duration="10" until="478"/> <!-- Eglinton Ave West at Oriole Pkwy East Side -->
    </route>
    <route id="47527655" edges="-9741512 -9741291 10133844 10133851 10133660 10133669 10144696 12174201 1137782 10133795 10133781 10145060 10133742 1137753 443954">
        <stop busStop="47508205.8" duration="10" until="0"/> <!-- Lawrence Ave West at Lorindale Ave East Side -->
        <stop busStop="47508205.9" duration="10" until="37"/> <!-- Lawrence Ave East at Yonge St East Side -->
        <stop busStop="47508205.10" duration="10" until="95"/> <!-- Lawrence Ave East at Weybourne Cres East Side -->
        <stop busStop="47508205.11" duration="10" until="128"/> <!-- Lawrence Ave East at Mt Pleasant Rd -->
        <stop busStop="47508205.12" duration="10" until="167"/> <!-- Lawrence Ave East at Dinnick Cres East Side -->
        <stop busStop="47508205.13" duration="10" until="198"/> <!-- Lawrence Ave East at Ronan Ave -->
        <stop busStop="47508205.14" duration="10" until="237"/> <!-- Lawrence Ave East at Wanless Cres (West) -->
        <stop busStop="47508205.15" duration="10" until="287"/> <!-- Lawrence Ave East at Wanless Cres (East) -->
    </route>
    <route id="47527898" edges="-1138402 1138402 -8203281 8202073 -8202073 8203281 1138403 8205745 1138388 1138360 1138342 -1138306 1138284 1138254 4030552 8322117 8322180 8322270 1138099 1138082 1138071 30101703 30101704 30151588 8322761 8322719 8322738 8344078 444986">
        <stop busStop="47517678.4" duration="10" until="0"/> <!-- Eglinton Ave West at Oriole Pkwy -->
        <stop busStop="47527898.2" duration="10" until="59"/> <!-- Avenue Rd at Eglinton Ave West North Side -->
        <stop busStop="47527898.3" duration="10" until="155"/> <!-- Avenue Rd at Roselawn Ave -->
        <stop busStop="47527898.4" duration="10" until="200"/> <!-- Avenue Rd at St Clements Ave -->
        <stop busStop="47527898.5" duration="10" until="247"/> <!-- Avenue Rd at Hillhurst Blvd -->
        <stop busStop="47527898.6" duration="10" until="293"/> <!-- Avenue Rd at Lytton Blvd -->
        <stop busStop="47527898.7" duration="10" until="375"/> <!-- Avenue Rd at Glengrove Ave West -->
        <stop busStop="47527898.8" duration="10" until="421"/> <!-- Avenue Rd at Glenview Ave North Side -->
        <stop busStop="47527898.9" duration="10" until="467"/> <!-- 1451 Avenue Rd - Havergal College -->
        <stop busStop="47527898.10" duration="10" until="530"/> <!-- Lawrence Ave West at Avenue Rd West Side -->
    </route>
    <route id="47527899" edges="-1138402 1138402 -8203281 8202073 -8202073 8203281 1138403 8205745 1138388 1138360 1138342 -1138306 1138284 1138254 4030552 8322117 8322180 8322270 1138099 1138082 1138071 30101703 30101704 30151588 8322761 8322719 8322738 8344078 444986">
        <stop busStop="47517678.4" duration="10" until="0"/> <!-- Eglinton Ave West at Oriole Pkwy -->
        <stop busStop="47527898.2" duration="10" until="59"/> <!-- Avenue Rd at Eglinton Ave West North Side -->
        <stop busStop="47527898.3" duration="10" until="155"/> <!-- Avenue Rd at Roselawn Ave -->
        <stop busStop="47527898.4" duration="10" until="200"/> <!-- Avenue Rd at St Clements Ave -->
        <stop busStop="47527898.5" duration="10" until="247"/> <!-- Avenue Rd at Hillhurst Blvd -->
        <stop busStop="47527898.6" duration="10" until="293"/> <!-- Avenue Rd at Lytton Blvd -->
        <stop busStop="47527898.7" duration="10" until="375"/> <!-- Avenue Rd at Glengrove Ave West -->
        <stop busStop="47527898.8" duration="10" until="421"/> <!-- Avenue Rd at Glenview Ave North Side -->
        <stop busStop="47527898.9" duration="10" until="467"/> <!-- 1451 Avenue Rd - Havergal College -->
        <stop busStop="47527898.10" duration="10" until="530"/> <!-- Lawrence Ave West at Avenue Rd West Side -->
    </route>
    <route id="47527948" edges="-443954 -1137753 -10133742 -10145060 -10133781 -10133795 -1137782 -12174201 -10144696 -10133669 -10133660 -10133851 -10133844 9741291 9741512 9741741 1137850 5070621 5102026 1137885 444568">
        <stop busStop="47508359.0" duration="10" until="0"/> <!-- Lawrence Ave East at Wanless Cres (East) West Side -->
        <stop busStop="47508359.1" duration="10" until="44"/> <!-- Lawrence Ave East at Wanless Cres (West) -->
        <stop busStop="47508359.2" duration="10" until="83"/> <!-- Lawrence Ave East at Ronan Ave -->
        <stop busStop="47508359.3" duration="10" until="132"/> <!-- Lawrence Ave East at Mt Pleasant Rd -->
        <stop busStop="47508359.4" duration="10" until="183"/> <!-- Lawrence Ave East at Cardinal Pl -->
        <stop busStop="47508359.5" duration="10" until="249"/> <!-- Lawrence Ave at Yonge St - Lawrence Station -->
        <stop busStop="47508359.6" duration="10" until="287"/> <!-- Lawrence Ave West at Lorindale Ave -->
        <stop busStop="47508359.7" duration="10" until="331"/> <!-- Lawrence Ave West at Jedburgh Rd -->
        <stop busStop="47508359.8" duration="10" until="398"/> <!-- Lawrence Ave West at Greer Rd -->
        <stop busStop="47508359.9" duration="10" until="480"/> <!-- Lawrence Ave West at Elm Rd West Side -->
        <stop busStop="47508360.10" duration="10" until="542"/> <!-- Lawrence Ave West at Avenue Rd -->
    </route>
    <route id="47527961" edges="9741741 1137850 5070621 5102026 1137885 444568">
        <stop busStop="47508359.7" duration="10" until="0"/> <!-- Lawrence Ave West at Jedburgh Rd -->
        <stop busStop="47508359.8" duration="10" until="67"/> <!-- Lawrence Ave West at Greer Rd -->
        <stop busStop="47508359.9" duration="10" until="149"/> <!-- Lawrence Ave West at Elm Rd West Side -->