<?xml version="1.0" encoding="UTF-8"?>

<!-- generated on 2024-08-21 21:04:13.105043 by routeSampler.py UNKNOWN
<configuration>
    <route-files value="data/processed/lawrence_park_south/initial_route_file.rou.xml"/>
    <turn-files value="data/processed/lawrence_park_south/turning_movements.xml"/>
    <output-file value="data/sumo_networks/lawrence_park_south/lawrence_park_south_routes.rou.xml"/>
    <begin value="28800"/>
    <end value="34200"/>
    <total-count value="6246"/>
</configuration>
-->

<routes xmlns:xsi="http://www.w3.org/2001/XMLSchema-instance" xsi:noNamespaceSchemaLocation="http://sumo.dlr.de/xsd/routes_file.xsd">
<!-- begin="28800.0" end="29700.0" -->
    <vehicle id="28800_0" depart="28800.01">
        <route edges="-8322270 -8322151 1138114 -1138097 -8263885 -8263985"/>
    </vehicle>
    <vehicle id="28800_1" depart="28800.12">
        <route edges="1138077 445530 -445530 -1138077 -1138061 -1138034 -30151588 -30101704 -30101703 -1138071 -30101647 -30101646 -13974078 -1138076 -1138089"/>
    </vehicle>
    <vehicle id="28800_2" depart="28801.22">
        <route edges="-30101704 30101704 30151588 -1138027 -1138011 -1137993 -1137983 10257906 8566492 10154603 30089551 30094595 30094596 1137893 30089590 30089591 30089588 1137902 1137899 7667127 1137883 -1137901"/>
    </vehicle>
    <vehicle id="28800_3" depart="28801.33">
        <route edges="1138036 30101643 30101644 30101646 30101647 -1138082 1138106 1138134 1138138 445803"/>
    </vehicle>
    <vehicle id="28800_4" depart="28801.41">
        <route edges="-1137855 -1137880 -10258392 -10154556 -8566503 -30094596 -30094595 -30089551 30094515 30094521"/>
    </vehicle>
    <vehicle id="28800_5" depart="28801.79">
        <route edges="30057003 7754013 -1137925 1137926 -7754671 1137920 11541937"/>
    </vehicle>
    <vehicle id="28800_6" depart="28803.44">
        <route edges="1138077 445530 -445530 -1138077 -1138061 -1138034 8322761"/>
    </vehicle>
    <vehicle id="28800_7" depart="28803.93">
        <route edges="-1137910 -1137924 -1137940 -30056945 -30056944 -30148388 -30148387 30057002 30057003 1137956 2476347 -2476347 -1137956"/>
    </vehicle>
    <vehicle id="28800_8" depart="28804.78">
        <route edges="-1137878 -1137883 -1137910 -1137924 -1137940 -30056945 -30056967 -30056965 30120824 30120825 -30120825 -30120824"/>
    </vehicle>
    <vehicle id="28800_9" depart="28804.96">
        <route edges="8344606 -2687536 -2687535 10154603 30089551 30089557 30089561 30089614 30089615 30089671"/>
    </vehicle>
    <vehicle id="28800_10" depart="28806.90">
        <route edges="1137910 1137884 1137864 1137838 1137805 1137782 10133814"/>
    </vehicle>
    <vehicle id="28800_11" depart="28807.06">
        <route edges="1137888 -5070621 -1137850 -9741741 -9741512 -9741291 7762807"/>
    </vehicle>
    <vehicle id="28800_12" depart="28807.49">
        <route edges="1138034 -1138034 -1138027 1138012 1137989 14662186 8566546 -1137885 -5102026 -5070621 -5070771 -8344151"/>
    </vehicle>
    <vehicle id="28800_13" depart="28807.53">
        <route edges="-2364217 -1137883 -1137910 -1137924 -1137940 -30056945 -30056944 -30148388 -30148387 -7753851 -7753896 -10258019 -10257961 -8566211 30104878 30104879 1138043 1138060 13974078 30101646 30101647 -1138082 -1138099 1138142 1138166"/>
    </vehicle>
    <vehicle id="28800_14" depart="28807.98">
        <route edges="-10133814 -1137782 -12174201 -10144696 -10133669 -10133660 -10133851 -10133844 -30118196 -30118195 -10154318 -8566503 -30094596 -30094595 -30089551 -10154603 -8566492 -10257906 -10257988 10257866 -1138026"/>
    </vehicle>
    <vehicle id="28800_15" depart="28808.13">
        <route edges="1137888 -5070621 -1137850 -9741741 -9741512 -9741291 7762807"/>
    </vehicle>
    <vehicle id="28800_16" depart="28808.15">
        <route edges="-30089551 -10154603 2687535 2687536 8344600 1137943"/>
    </vehicle>
    <vehicle id="28800_17" depart="28808.93">
        <route edges="-30104887 -30104888 30104879 -1138056 -1138073 1138093 -8263985 1138141 1138175 -8322117 -4030552 -1138254 -14047390"/>
    </vehicle>
    <vehicle id="28800_18" depart="28808.98">
        <route edges="2687536 8344600 30089126 30089149 30089150 30111183 30111184 1137895 1137880 1137855 -9741741 -9741512 -9741291 10133844 10133851 10133660 10133669 10144696 12174201 1137782 10133795 10133781 10145060 10133742 1137772 1137771 -30024554 -30024553 30024553 30024554"/>
    </vehicle>
    <vehicle id="28800_19" depart="28809.12">
        <route edges="-10133814 10133795 10133781 10145060 10133742 1137772 1137771"/>
    </vehicle>
    <vehicle id="28800_20" depart="28810.28">
        <route edges="1138060 13974078 -30101644 -30101643 8322640 1138012 1137989 14662186 8566546 -1137885 -5102026 -5070621"/>
    </vehicle>
    <vehicle id="28800_21" depart="28810.54">
        <route edges="8344132 -8344202 -8344151 -1137903 -10258392 -10154556 -8566503 1137893 30089590 30089591 30089588 1137916 1137909 -1137920 1137920"/>
    </vehicle>
    <vehicle id="28800_22" depart="28810.89">
        <route edges="-7753973 -7754013 -30057003 -30057002 -7753851 -7753896 -10258019 -10257961 30104881 30104882 10257988 1137983 1137993 1138011 1138027 1138034 1138061"/>
    </vehicle>
    <vehicle id="28800_23" depart="28810.94">
        <route edges="1138284 1138275 1138283 1138288 1138297 1138313 -1138435"/>
    </vehicle>
    <vehicle id="28800_24" depart="28812.37">
        <route edges="-2689153 -2689164 -8322774 -8322738 -8322719 -8322761 -1138027 -8322640 -1138036 -1138044 -1138043 -30104879 30104888 30104887"/>
    </vehicle>
    <vehicle id="28800_25" depart="28812.88">
        <route edges="-444568 -8566546 -14662186 -1137989 -1137988 -1137976 -1137970"/>
    </vehicle>
    <vehicle id="28800_26" depart="28813.22">
        <route edges="-444568 -8566546 -14662186 -1137989 1137989"/>
    </vehicle>
    <vehicle id="28800_27" depart="28813.60">
        <route edges="-2364217 -1137883 -1137910 -1137924 -1137940 -30056945 30056945"/>
    </vehicle>
    <vehicle id="28800_28" depart="28813.86">
        <route edges="-10133814 -1137782 -12174201 -10144696 -10133669 -10133660 -10133851 -1137849 -1137874 -1137891 30089590 30089640 -30089642 -30094557 -30094590 -30094547 -30094534"/>
    </vehicle>
    <vehicle id="28800_29" depart="28815.25">
        <route edges="-30148379 30148379 30056967 30056945 1137940 1137924 1137910 1137884 1137864 1137838 1137805 -12174201 -10144696 -10133669 -10133660 -10133851 -10133844 9741291 9741512 9741741 1137850 1137851"/>
    </vehicle>
    <vehicle id="28800_30" depart="28815.80">
        <route edges="1138002 -8322761 1138034 -1138034"/>
    </vehicle>
    <vehicle id="28800_31" depart="28816.31">
        <route edges="-1138034 -30151588 -30101704 -30101703 -1138071 -30101647 -30101646 -30101644"/>
    </vehicle>
    <vehicle id="28800_32" depart="28817.20">
        <route edges="-14661964 -1138177 8322270 1138099 1138082 1138071 30101703 30101704 30151588 8322761 8322719 8322738 -8322738"/>
    </vehicle>
    <vehicle id="28800_33" depart="28817.22">
        <route edges="-444986 -8344078 -8322738 -8322777 14662186 8566546 -1137885 -5102026 -5070621 -1137850"/>
    </vehicle>
    <vehicle id="28800_34" depart="28817.39">
        <route edges="-14171668 -30120825 -30120824 30056965 30056967 30056945 1137940 1137924 1137910 1137884 1137864 1137838 1137805 -12174201 -10144696 -10133669 -10133660 -10133851 -1137849"/>
    </vehicle>
    <vehicle id="28800_35" depart="28819.72">
        <route edges="-30057002 -1137998 1137998 30057002 30057003 1137956"/>
    </vehicle>
    <vehicle id="28800_36" depart="28821.02">
        <route edges="4030636 -1138238 -4030552 4030552"/>
    </vehicle>
    <vehicle id="28800_37" depart="28821.24">
        <route edges="-2364635 1137814 -10280145 -10279965 -1137878 -1137883 1137884"/>
    </vehicle>
    <vehicle id="28800_38" depart="28822.67">
        <route edges="-444568 -8566546 -14662186 -1137989 -1137988 -1137976 -1137970"/>
    </vehicle>
    <vehicle id="28800_39" depart="28822.90">
        <route edges="10133795 -7665593 -1137806 -10280145 1137816 1137823 -1137823"/>
    </vehicle>
    <vehicle id="28800_40" depart="28824.78">
        <route edges="-30101705 -30101644 -30101643 8322640 1138012 1137989 14662186 8566546 -1137885 -5102026 -5070621 5070621"/>
    </vehicle>
    <vehicle id="28800_41" depart="28826.25">
        <route edges="-30089579 -30089573 -30094516 -30094515 30089551 30094595 30094596 30110523 30157999 30157998"/>
    </vehicle>
    <vehicle id="28800_42" depart="28827.86">
        <route edges="-1138061 -1138034 8322761 8322719 8322738 8322774"/>
    </vehicle>
    <vehicle id="28800_43" depart="28832.42">
        <route edges="-1137936 -30120825 -30120824 30056965 30056967 30056945 1137940 1137924 1137910 1137884 1137864 1137838 1137805 -12174201 -10144696 -10133669 -10133660 -10133851 -10133844 9741291 9741512 9741741 1137850 1137851"/>
    </vehicle>
    <vehicle id="28800_44" depart="28833.05">
        <route edges="8202073 8202883 8192164 8190967 1138450 1138388 1138360 1138342 -1138306 1138284 1138254 4030552 1138238"/>
    </vehicle>
    <vehicle id="28800_45" depart="28833.81">
        <route edges="4030636 -1138238 8322117 8322180 8322270 1138099 1138082 1138071 -30151591 30151591"/>
    </vehicle>
    <vehicle id="28800_46" depart="28835.04">
        <route edges="30111183 30111184 1137895 1137880 1137855 -9741741 -9741512 -9741291 10133844 10133851 10133660 10133669 10144696 12174201 1137782 10133795 10133781 10145060 10133742 1137772 1137771 -1137771"/>
    </vehicle>
    <vehicle id="28800_47" depart="28835.10">
        <route edges="1137884 1137864 1137838 1137805 1137782 10133795 10133781 10145060 10133742"/>
    </vehicle>
    <vehicle id="28800_48" depart="28835.51">
        <route edges="-8203281 -8205774 8205774 8203281 14036499 14036500"/>
    </vehicle>
    <vehicle id="28800_49" depart="28838.18">
        <route edges="30056944 30056945 1137940 1137924 1137910 1137884 1137864 1137838 1137805 -12174201 -10144696 -10133669 -10133660 -10133851 -10133844 9741291 4121518"/>
    </vehicle>
    <vehicle id="28800_50" depart="28839.37">
        <route edges="-2476347 -1137956 7754013 7753973 2364108 2364126 2364100 2364091 2364275 2364195 4153112"/>
    </vehicle>
    <vehicle id="28800_51" depart="28839.51">
        <route edges="-1137936 -30120825 -30120824 30056965 30056967 30056945 1137940 1137924 1137910 1137884 1137864 1137838 1137805 -12174201 -10144696 -10133669 -10133660 -10133851 -10133844 9741291 9741512 9741741 1137850 -1137850"/>
    </vehicle>
    <vehicle id="28800_52" depart="28840.42">
        <route edges="14047390 -1138284 1138306 -1138342 -1138360 -1138388 -8205745"/>
    </vehicle>
    <vehicle id="28800_53" depart="28841.08">
        <route edges="-10133844 7762807 -7762807 10133844 10133851 10133660 10133669 10144696 12174201 -1137805"/>
    </vehicle>
    <vehicle id="28800_54" depart="28842.17">
        <route edges="2364668 1137838 1137805 -12174201 -10144696 -10133669 -10133660 -10133851 -10133844 9741291 9741512 9741741 1137850 1137851"/>
    </vehicle>
    <vehicle id="28800_55" depart="28843.37">
        <route edges="-2476347 -1137956 -30057003 -30057002 -7753851 -7753896 -10258019 -10257961 -8566211 30104878 30104879 -1138056 -1138073 1138093 -8263985 1138141 1138175 -8322117 -4030552 -1138254 -1138284 1138306 -1138342 -1138360 -1138388 -1138450 -14036500 -14036499"/>
    </vehicle>
    <vehicle id="28800_56" depart="28844.98">
        <route edges="1138306 -1138306 1138284 1138254 4030552 8322117 8322180 8322270 1138099 1138082 -30101647 -30101646 -13974078 -1138060 -1138043 -30104879 -30104878 8566211 10257961"/>
    </vehicle>
    <vehicle id="28800_57" depart="28845.20">
        <route edges="-1137940 -30056945 30056945 1137940 1137924 1137910 1137884 1137864 1137838 1137805 1137782 10133814"/>
    </vehicle>
    <vehicle id="28800_58" depart="28846.02">
        <route edges="-1137868 1137861 -1137848 -1137856 30118195 30118196 9741291 9741512 9741741 1137850 5070621 5102026 1137871"/>
    </vehicle>
    <vehicle id="28800_59" depart="28846.50">
        <route edges="1137888 -5070621 -1137850 -9741741 -9741512 -9741291 10133844 10133851 10133660 10133669 10144696 12174201 -1137805 -1137838 1137838"/>
    </vehicle>
    <vehicle id="28800_60" depart="28846.65">
        <route edges="-30148394 30148388 30056944 30056945 1137940 1137924 1137910 1137884 1137864 1137838 1137805 1137782 10133795 10133781 -10133781"/>
    </vehicle>
    <vehicle id="28800_61" depart="28847.12">
        <route edges="8205745 -1138450 -8190967 8192022 8202870 8168653 8168672 11901951 14023709 -14063213"/>
    </vehicle>
    <vehicle id="28800_62" depart="28848.90">
        <route edges="1138071 -1138071 -1138082 -1138099 -8322270 1138177 -4030635"/>
    </vehicle>
    <vehicle id="28800_63" depart="28849.17">
        <route edges="-1137878 -1137883 -1137910 -1137924 -1137940 -30056945 -30056944 -30148388"/>
    </vehicle>
    <vehicle id="28800_64" depart="28850.56">
        <route edges="-30151589 -30101704 -30101703 -1138071 -1138082 -1138099 -8322270 1138177 14661964 1138203"/>
    </vehicle>
    <vehicle id="28800_65" depart="28850.93">
        <route edges="-30089590 -1137893 8566503 10154318 30118195 30118208"/>
    </vehicle>
    <vehicle id="28800_66" depart="28851.88">
        <route edges="1138124 8263985 8263885 1138097 1138098 1138099 1138082 1138071 30101703 30101704 30151588 1138034"/>
    </vehicle>
    <vehicle id="28800_67" depart="28851.96">
        <route edges="-1137864 30151195 -30151195"/>
    </vehicle>
    <vehicle id="28800_68" depart="28852.06">
        <route edges="-1138306 1138284 1138275 1138283 -1138372 -1138469 1138490 1138491"/>
    </vehicle>
    <vehicle id="28800_69" depart="28852.28">
        <route edges="-8344600 1137966 1137967 -1137943 30089126 30089149 30089150 30111183 30111184 30157998 8344132 1137888 -5070621"/>
    </vehicle>
    <vehicle id="28800_70" depart="28853.57">
        <route edges="-8322151 8322151 8322270 1138099 1138106 1138107 1138086 1138077 445530"/>
    </vehicle>
    <vehicle id="28800_71" depart="28855.98">
        <route edges="30111185 -30111183 -30089150 -30089149 -30089126 -8344600 1137966 1137970 1137976 1137988 1138002 1138013 1138014 -1138014"/>
    </vehicle>
    <vehicle id="28800_72" depart="28856.21">
        <route edges="20140051 20140025 -20140025 -20140051 10154603 30089551 30094595 30094596 8566503 10154318 30118195 30118196 9741291 9741512 20079232"/>
    </vehicle>
    <vehicle id="28800_73" depart="28856.27">
        <route edges="30056944 30056945 1137940 1137924 -1137916 -30089588 -30089634 30089643 -30094557 -30094590 -30094547 -30094534 30094568 30094576"/>
    </vehicle>
    <vehicle id="28800_74" depart="28856.42">
        <route edges="-10133814 10133795 10133781 10145060 10133742 1137772 1137771 -30024554 -30024553 30024553 30024554"/>
    </vehicle>
    <vehicle id="28800_75" depart="28857.61">
        <route edges="-10133851 -1137849 -1137874 -1137891 30089590 30089591 30089588 1137902"/>
    </vehicle>
    <vehicle id="28800_76" depart="28859.13">
        <route edges="-10133814 -1137782 -12174201 -10144696 -10133669 -10133660 -10133851 -10133844"/>
    </vehicle>
    <vehicle id="28800_77" depart="28859.41">
        <route edges="-10258392 -10154556 -8566503 1137893 30089590 30089591 -30089634 30089643"/>
    </vehicle>
    <vehicle id="28800_78" depart="28859.80">
        <route edges="-444568 -8566546 -14662186 -1137989 -1138012 1138027 1138034 1138061 1138062"/>
    </vehicle>
    <vehicle id="28800_79" depart="28859.82">
        <route edges="-1137782 -12174201 -10144696 -10133669 -10133660 -10133851 -1137849 -1137874 -1137891 30089590 30089640 -30089642 -30094557 -30094590"/>
    </vehicle>
    <vehicle id="28800_80" depart="28859.91">
        <route edges="-8203281 8202073 8202883 8192164 8192022 8202870 8168653 8168672 11901951 14023709 14023710 1138416 1138298 4030636 1138239 -1138217 4030635 1138178 1138143 1138107 1138086 1138062"/>
    </vehicle>
    <vehicle id="28800_81" depart="28860.28">
        <route edges="30118196 7762807 -7762807 -30118196 -30118195 -10154318 -8566503 30110523 -30110525"/>
    </vehicle>
    <vehicle id="28800_82" depart="28860.75">
        <route edges="-1137822 -1137823 -1137816 10280145 1137806 7665593 -10133795 10133814"/>
    </vehicle>
    <vehicle id="28800_83" depart="28861.52">
        <route edges="-1138061 -1138034 -1138027 1138012 1137989 14662186 8566546 -1137885 -5102026"/>
    </vehicle>
    <vehicle id="28800_84" depart="28861.61">
        <route edges="-1138178 -1138177 8322270 1138099 1138082 1138071 -30151591 -30101671"/>
    </vehicle>
    <vehicle id="28800_85" depart="28861.84">
        <route edges="-8203281 -8205774 8205774 8203281 14036499 14036500"/>
    </vehicle>
    <vehicle id="28800_86" depart="28862.11">
        <route edges="-1137851 -1137850 -1137855 1137875"/>
    </vehicle>
    <vehicle id="28800_87" depart="28862.14">
        <route edges="-8344078 -8322738 -8322777 14662186 8566546 -1137885 -5102026 -5070621"/>
    </vehicle>
    <vehicle id="28800_88" depart="28863.44">
        <route edges="-1138002 -1137988 -1137976 -1137970 -1137966 -8344606 -11395007 -1138026 -30104879 30104888"/>
    </vehicle>
    <vehicle id="28800_89" depart="28863.91">
        <route edges="1137873 -1137873 1137874 -1137856 30118195 30118196"/>
    </vehicle>
    <vehicle id="28800_90" depart="28864.04">
        <route edges="8322738 -8322738 -8322719 -1138002 -1137988 -1137976 -1137970 -1137966 -8344606 -11395007 -1138026 -1138056 -1138073 1138093"/>
    </vehicle>
    <vehicle id="28800_91" depart="28864.54">
        <route edges="-1138061 -1138034 -1138027 1138012 1137989 14662186 8566546 -1137885 -5102026"/>
    </vehicle>
    <vehicle id="28800_92" depart="28864.60">
        <route edges="10133851 -10133851 -1137849 -1137874 -1137891 30089590 30089640 -30089642 -30094557 -30094580 -30094578 -30089593"/>
    </vehicle>
    <vehicle id="28800_93" depart="28865.08">
        <route edges="-30148394 30148388 30056944 30056945 1137940 1137924 1137910 1137884 30151195 10279965"/>
    </vehicle>
    <vehicle id="28800_94" depart="28865.61">
        <route edges="-30148378 -30057002 -7753851 -7753896 -10258019 -10257961 -8566211 30104878 30104879 1138043 1138060 13974078 30101646 30101647 -1138082 -1138099 1138142 1138166 -1138166"/>
    </vehicle>
    <vehicle id="28800_95" depart="28865.77">
        <route edges="14047390 -1138284 1138306 -1138342 -1138360 1138371"/>
    </vehicle>
    <vehicle id="28800_96" depart="28866.69">
        <route edges="-1137846 -30151195 -1137884 -1137910 -1137924 -1137931"/>
    </vehicle>
    <vehicle id="28800_97" depart="28868.03">
        <route edges="-30089579 -30089573 -30094516 -30094515 30089551 30094595 30094596 8566503 10154318 30118195 30118196 10133844 -1137849"/>
    </vehicle>
    <vehicle id="28800_98" depart="28868.04">
        <route edges="1137888 -5070621 -1137850 -9741741 -9741512 -9741291 7762807"/>
    </vehicle>
    <vehicle id="28800_99" depart="28868.13">
        <route edges="-2364126 -2364108 -7666513 -7754671 -1137923 1137924 -1137916 -30089588 -30089591 -30089590 -1137893 30110523 30157999 30157998 11405227"/>
    </vehicle>
    <vehicle id="28800_100" depart="28868.62">
        <route edges="-8322270 -8322151 1138114 -1138097 -8263885 -1138093 -8566018"/>
    </vehicle>
    <vehicle id="28800_101" depart="28869.18">
        <route edges="11901951 14023709 14023710 1138416 1138298 4030636 1138239 -1138217 4030635 1138178 1138143 1138107 1138086 1138077 445530"/>
    </vehicle>
    <vehicle id="28800_102" depart="28869.27">
        <route edges="1137883 1137878 10279965 1137816 -30024523"/>
    </vehicle>
    <vehicle id="28800_103" depart="28869.28">
        <route edges="-10133742 -10145060 -10133781 -10133795 -1137782 -1137805 -1137838 -1137864 -1137884 -1137910 -1137924 -1137940 -30056945 -30056967 -30056965"/>
    </vehicle>
    <vehicle id="28800_104" depart="28869.88">
        <route edges="-1137875 1137855 -9741741 -9741512 -9741291 10133844 10133851 10133660 10133669 10144696 12174201 1137782 10133795 -7665593"/>
    </vehicle>
    <vehicle id="28800_105" depart="28870.61">
        <route edges="-1137880 -10258392 -10154556 -8566503 -30094596 -30094595 30089557 30089561 30089614 -30089614"/>
    </vehicle>
    <vehicle id="28800_106" depart="28872.16">
        <route edges="10133660 10133669 10144696 12174201 -1137805 -1137838 -1137864 -1137884 -1137910 -1137924 1137923 7754671 -1137926 1137925"/>
    </vehicle>
    <vehicle id="28800_107" depart="28873.03">
        <route edges="-10133814 -1137782 -12174201 -10144696 -10133669 -10133660 -10133851 -10133844"/>
    </vehicle>
    <vehicle id="28800_108" depart="28875.20">
        <route edges="8344132 -8344202 5070771 -1137850 -9741741 -9741512 -9741291 10133844 10133851 10133660 10133669 10144696 12174201 -1137805 -1137838 -1137864 -1137884"/>
    </vehicle>
    <vehicle id="28800_109" depart="28878.38">
        <route edges="-1138178 -1138177 8322270 1138099 1138082 1138071 30101703 30101704 30151588 -1138027 1138012 1137989 14662186 8566546 -1137885 -5102026 -5070621 1137851"/>
    </vehicle>
    <vehicle id="28800_110" depart="28879.55">
        <route edges="10258019 -10258019 -10257961 -8566211 30104878 30104879 -30104879"/>
    </vehicle>
    <vehicle id="28800_111" depart="28879.74">
        <route edges="-10133844 7762807 -7762807 10133844 10133851 10133660 10133669 10144696 12174201 -1137805"/>
    </vehicle>
    <vehicle id="28800_112" depart="28880.36">
        <route edges="-14023709 8168719 1138575 14023833 14023834 -14023834"/>
    </vehicle>
    <vehicle id="28800_113" depart="28882.25">
        <route edges="10279965 10280145 1137806 7665593 -10133795 10133814"/>
    </vehicle>
    <vehicle id="28800_114" depart="28882.86">
        <route edges="-2364690 1137805 1137782 10133795 10133781 10145060 10133742 -10133742"/>
    </vehicle>
    <vehicle id="28800_115" depart="28883.36">
        <route edges="-1137920 -1137923 1137924 -1137916 -30089588 -30089591 -30089590 -1137893 -30094596 -30094595 -30089551 -10154603 2687535 2687536"/>
    </vehicle>
    <vehicle id="28800_116" depart="28885.86">
        <route edges="-30118208 30118196 9741291 9741512 9741741 1137850 -5070771 -8344151"/>
    </vehicle>
    <vehicle id="28800_117" depart="28891.24">
        <route edges="-1137851 -1137850 -9741741 -9741512 -9741291 10133844 10133851 10133660 -1137836 1137835 2364668"/>
    </vehicle>
    <vehicle id="28800_118" depart="28891.62">
        <route edges="-10133669 -10133660 -10133851 -10133844 7762807"/>
    </vehicle>
    <vehicle id="28800_119" depart="28891.70">
        <route edges="5102026 -5102026 -5070621 -1137850 -9741741 -9741512 -9741291 -30118196 -30118195 -10154318 -8566503 -30094596 -30094595 -30089551 -10154603 -8566492 -10257906 -10257988 -30104882 -30104881 10257961 10258019 -10258019"/>
    </vehicle>
    <vehicle id="28800_120" depart="28891.70">
        <route edges="1138469 -1138371 1138360 1138342 -1138306 1138284 1138254 4030552 8322117 8322180 8322270 1138099 1138082 -30101647 -30101646 -13974078 -1138060 -1138043 -30104879 -30104878 8566211 10257961 10258019 7753896 7753851 -1137998 1137998 -7753851 -7753896"/>
    </vehicle>
    <vehicle id="28800_121" depart="28892.26">
        <route edges="-1137940 -30056945 30056945 1137940 1137924 1137910 1137884 1137864 1137838 1137805 1137782 10133814"/>
    </vehicle>
    <vehicle id="28800_122" depart="28892.31">
        <route edges="14047390 -1138284 1138306 -1138342 -1138360 1138371"/>
    </vehicle>
    <vehicle id="28800_123" depart="28894.81">
        <route edges="-30057002 -1137998 1137998 30057002 30057003 1137956"/>
    </vehicle>
    <vehicle id="28800_124" depart="28894.83">
        <route edges="1137796 -1137771 -1137772 -10133742 -10145060 -10133781 -10133795 -1137782 -12174201 -10144696 -10133669 -10133660 -10133851 -10133844 -30118196 -30118195 -10154318 -8566503 -30094596 -30094595 -30089551 -10154603 2687535 2687536 1137966 1137970 1137976 1137988 1138002 8322719 8322738 8322774 1137975 445003 -445003 -1137975"/>
    </vehicle>
    <vehicle id="28800_125" depart="28894.85">
        <route edges="30094569 -30089647 30089593 30094578 30094580 30094557 -30089643 30089634 30089588 1137916 -1137924 -1137940 -30056945 -30056944 -30148388 -30148387 30057002 30148378"/>
    </vehicle>
    <vehicle id="28800_126" depart="28895.32">
        <route edges="5070771 -1137850 -1137855 -1137880 -1137895 -30111184 -30111183 -30089150 -30089149 -30089126 -8344600 -8344606 -11395007 -1138026 -1138056 -1138073 -4030534 8238095"/>
    </vehicle>
    <vehicle id="28800_127" depart="28897.22">
        <route edges="-10133660 -10133851 -10133844 9741291 9741512 9741741 1137850 -5070771"/>
    </vehicle>
    <vehicle id="28800_128" depart="28898.34">
        <route edges="10258392 -1137895 -30111184 -30111185 -30110517"/>
    </vehicle>
    <vehicle id="28800_129" depart="28899.39">
        <route edges="30111185 30111184 1137895 -10258392 -10154556 -8566503 1137893 30089590 30089640 -30089642 -30094557 -30094580"/>
    </vehicle>
    <vehicle id="28800_130" depart="28899.90">
        <route edges="10133669 10144696 12174201 -1137805 -1137838 -1137864 -1137884 -1137910 -1137924 1137923 7754671 -1137926 1137925 7753973"/>
    </vehicle>
    <vehicle id="28800_131" depart="28900.36">
        <route edges="-8203281 8202073 8202883 8192164 8190967 1138450 1138388 1138360 1138342 -1138306 1138284 1138254 4030552 8322117 8322180 8322270 1138099 1138082 1138071 30101703 30101704 30151588 -1138027 1138012 1137989 14662186 8566546 -8566546"/>
    </vehicle>
    <vehicle id="28800_132" depart="28901.97">
        <route edges="-1137822 -1137823 -1137816 10280145 1137806 7665593 -10133795 10133814"/>
    </vehicle>
    <vehicle id="28800_133" depart="28902.45">
        <route edges="-1138177 8322270 1138099 1138082 30101674 30101676 30101680 30101700"/>
    </vehicle>
    <vehicle id="28800_134" depart="28903.04">
        <route edges="-1137973 -1138000 -10258019 -10257961 -8566211 30104878 30104879 1138043 1138060 13974078 30101646 30101647 -1138082"/>
    </vehicle>
    <vehicle id="28800_135" depart="28903.86">
        <route edges="-1137920 -1137923 1137924 1137910 1137884 1137864 1137838 1137805 1137782 10133795 10133781 -10133781"/>
    </vehicle>
    <vehicle id="28800_136" depart="28904.53">
        <route edges="-1137850 -1137855 -1137880 -1137895 -30111184 -30111183 -30089150 -30089149 -30089126 -8344600 -8344606 -11395007 -1138026 -1138056 1138056"/>
    </vehicle>
    <vehicle id="28800_137" depart="28905.48">
        <route edges="1137998 -7753851 -7753896 -10258019 -10257961 -8566211 30104878 30104879 1138043 1138060 13974078 30101646 30101647 -1138082 1138106 1138134 1138135 -1138135"/>
    </vehicle>
    <vehicle id="28800_138" depart="28905.80">
        <route edges="-30057002 -1137998 1137998 30057002 30057003 1137956"/>
    </vehicle>
    <vehicle id="28800_139" depart="28906.65">
        <route edges="-7762807 9741291 9741512 9741741 1137850 5070621 5102026 1137885"/>
    </vehicle>
    <vehicle id="28800_140" depart="28908.19">
        <route edges="-1138062 -1138061 -1138034 -30151588 -30101704 -30101703 -1138071 30101674 30101676 30101680"/>
    </vehicle>
    <vehicle id="28800_141" depart="28908.50">
        <route edges="-8203281 8202073 8202883 8192164 8190967 1138450 1138388 1138360 1138342 -1138306 1138284 1138254 4030552 8322117 8322180 8322270 1138099 1138082 -30101647 -30101646 -13974078 -1138060 1138044"/>
    </vehicle>
    <vehicle id="28800_142" depart="28908.92">
        <route edges="30089602 -30089602 -30089559 -30089557 30094595 30094596 30110523 -30110525 -30110515"/>
    </vehicle>
    <vehicle id="28800_143" depart="28910.63">
        <route edges="1138023 445281 -445281 -1138023 -1138014 -1138013 -8322761 -30151588 -30101704 -30101703 -1138071 -1138082 -1138099 -8322270 -8322180 -8322117 -4030552 -1138254 -1138284 1138306 -1138342 -1138360 -1138388 1138388"/>
    </vehicle>
    <vehicle id="28800_144" depart="28910.70">
        <route edges="-1138268 4030552 8322117 8322180 1138177 14661964 1138201"/>
    </vehicle>
    <vehicle id="28800_145" depart="28911.93">
        <route edges="-1137855 -1137880 -10258392 -10154556 -8566503 -30094596 -30094595 -30089551 30094515 30094521"/>
    </vehicle>
    <vehicle id="28800_146" depart="28912.34">
        <route edges="14023650 8192164 8192022 8202870 8168653 8168672 11901951 14023709 14023710 1138416 1138298 4030636 1138239 -1138217 4030635 1138178 1138143 1138134"/>
    </vehicle>
    <vehicle id="28800_147" depart="28913.00">
        <route edges="-5102026 -5070621 -1137850 -1137855 -1137880 -10258392 10258392"/>
    </vehicle>
    <vehicle id="28800_148" depart="28915.08">
        <route edges="10133844 -1137849 -1137856 -10154318 -8566503 -30094596 -30094595 -30089551 -10154603 -8566492 -10257906 -10257988 -30104882 -30104881 -8566211 30104878 30104879 -1138056 -1138073 -4030534 8238095 -1138156"/>
    </vehicle>
    <vehicle id="28800_149" depart="28917.59">
        <route edges="-1137880 -10258392 -10154556 -8566503 1137893"/>
    </vehicle>
    <vehicle id="28800_150" depart="28918.34">
        <route edges="-10133742 -10145060 -10133781 -7665593 7665593"/>
    </vehicle>
    <vehicle id="28800_151" depart="28918.54">
        <route edges="-1137903 1137880 1137855 -9741741 -9741512 -9741291 10133844 10133851 10133660 10133669 10144696 12174201 1137782 10133795 10133781 10145060 10133742 1137753"/>
    </vehicle>
    <vehicle id="28800_152" depart="28920.45">